Date: Tue Aug 11 12:45:47 CDT 2020
Working directory: /home1/07468/uv375/parallel-sort
System: maverick2, v100, 1node, 2procspernode, 24coresperproc, 2thspercore, 96threads
Module list:

Currently Loaded Modules:
  1) intel/18.0.2   3) git/2.24.1      5) python2/2.7.16   7) xalt/2.9.6
  2) impi/18.0.2    4) autotools/1.2   6) cmake/3.16.1     8) TACC

 

Installing parallel-sort go module...
internal/race
unicode/utf8
math/bits
runtime/internal/sys
unicode
runtime/internal/atomic
sync/atomic
internal/cpu
internal/testlog
runtime/internal/math
internal/bytealg
math
runtime
internal/reflectlite
sync
github.com/carlosgvaso/parallel-sort/bitonicsort
github.com/carlosgvaso/parallel-sort/mergesort
github.com/carlosgvaso/parallel-sort/bricksort
github.com/carlosgvaso/parallel-sort/radixsort
math/rand
github.com/carlosgvaso/parallel-sort/quicksort
errors
sort
internal/oserror
io
strconv
syscall
bytes
strings
reflect
bufio
internal/syscall/execenv
internal/syscall/unix
time
internal/poll
internal/fmtsort
os
path/filepath
fmt
io/ioutil
flag
log
encoding/csv
github.com/carlosgvaso/parallel-sort/cmd/arraygenerator
github.com/carlosgvaso/parallel-sort/cmd/comparealgs

Running jobs...
Job: Input: ./input/AscendingOrderHighOnFirstHalfAndLowOnSecondHalf_10000000.txt Output: ./output/AscendingOrderHighOnFirstHalfAndLowOnSecondHalf_10000000_p1.txt Procs: 1 Runs: 10
Input file: ./input/AscendingOrderHighOnFirstHalfAndLowOnSecondHalf_10000000.txt
Output file: ./output/AscendingOrderHighOnFirstHalfAndLowOnSecondHalf_10000000_p1.txt
Logical CPUs: 48
Max procs: 1
Runs: 10
Problem size: n = 10000000
	Bitonic Sort:
		Exec time 1: 4m29.063023224s
		Exec time 2: 4m38.75140579s
		Exec time 3: 4m45.500125553s
		Exec time 4: 4m53.361912385s
		Exec time 5: 4m57.410586662s
		Exec time 6: 4m49.658201846s
		Exec time 7: 4m29.325077009s
		Exec time 8: 4m36.225581161s
		Exec time 9: 4m38.98844857s
		Exec time 10: 4m47.692879031s
		Exec time avg: 282597724123ns
	Mergesort:
		Exec time 1: 1.632543031s
		Exec time 2: 1.628576686s
		Exec time 3: 1.639230681s
		Exec time 4: 1.342204825s
		Exec time 5: 1.624830868s
		Exec time 6: 1.427992565s
		Exec time 7: 1.415775632s
		Exec time 8: 1.430550472s
		Exec time 9: 1.419362025s
		Exec time 10: 1.410462385s
		Exec time avg: 1497152917ns
	Quicksort:
		Exec time 1: 3.089092563s
		Exec time 2: 3.089368144s
		Exec time 3: 3.067539616s
		Exec time 4: 3.081919815s
		Exec time 5: 3.058993894s
		Exec time 6: 3.077847871s
		Exec time 7: 3.101870814s
		Exec time 8: 3.055560194s
		Exec time 9: 3.053180742s
		Exec time 10: 3.1848664s
		Exec time avg: 3086024005ns
	Radix Sort:
		Exec time 1: 1m1.972910377s
		Exec time 2: 1m1.828870595s
		Exec time 3: 59.919799035s
		Exec time 4: 1m12.836286428s
		Exec time 5: 1m5.614748952s
		Exec time 6: 1m7.287408952s
		Exec time 7: 1m13.863385848s
		Exec time 8: 1m10.083588601s
		Exec time 9: 1m9.201528174s
		Exec time 10: 1m6.913785253s
		Exec time avg: 66952231221ns
Job: Input: ./input/AscendingOrderHighOnFirstHalfAndLowOnSecondHalf_10000000.txt Output: ./output/AscendingOrderHighOnFirstHalfAndLowOnSecondHalf_10000000_p24.txt Procs: 24 Runs: 10
Input file: ./input/AscendingOrderHighOnFirstHalfAndLowOnSecondHalf_10000000.txt
Output file: ./output/AscendingOrderHighOnFirstHalfAndLowOnSecondHalf_10000000_p24.txt
Logical CPUs: 48
Max procs: 24
Runs: 10
Problem size: n = 10000000
	Bitonic Sort:
		Exec time 1: 34.07997849s
		Exec time 2: 34.325496337s
		Exec time 3: 34.406317953s
		Exec time 4: 35.132341335s
		Exec time 5: 34.437088085s
		Exec time 6: 35.067138634s
		Exec time 7: 35.108344456s
		Exec time 8: 35.207044061s
		Exec time 9: 35.467115262s
		Exec time 10: 34.81607296s
		Exec time avg: 34804693757ns
	Mergesort:
		Exec time 1: 1.271376571s
		Exec time 2: 725.814743ms
		Exec time 3: 1.412449001s
		Exec time 4: 1.312816703s
		Exec time 5: 1.205998254s
		Exec time 6: 711.339768ms
		Exec time 7: 1.300465852s
		Exec time 8: 759.443347ms
		Exec time 9: 1.39710334s
		Exec time 10: 1.262526272s
		Exec time avg: 1135933385ns
	Quicksort:
		Exec time 1: 5.778513893s
		Exec time 2: 5.744517276s
		Exec time 3: 5.882217947s
		Exec time 4: 6.00323619s
		Exec time 5: 5.966636855s
		Exec time 6: 5.949544291s
		Exec time 7: 5.881637458s
		Exec time 8: 5.885757219s
		Exec time 9: 5.836966803s
		Exec time 10: 5.782894126s
		Exec time avg: 5871192205ns
	Radix Sort:
		Exec time 1: 28.791993446s
		Exec time 2: 28.796814693s
		Exec time 3: 28.231709314s
		Exec time 4: 26.916540846s
		Exec time 5: 27.55442273s
		Exec time 6: 25.888046176s
		Exec time 7: 26.183371833s
		Exec time 8: 25.101798237s
		Exec time 9: 23.900577063s
		Exec time 10: 25.386172933s
		Exec time avg: 26675144727ns
Job: Input: ./input/AscendingOrderHighOnFirstHalfAndLowOnSecondHalf_10000000.txt Output: ./output/AscendingOrderHighOnFirstHalfAndLowOnSecondHalf_10000000_p48.txt Procs: 48 Runs: 10
Input file: ./input/AscendingOrderHighOnFirstHalfAndLowOnSecondHalf_10000000.txt
Output file: ./output/AscendingOrderHighOnFirstHalfAndLowOnSecondHalf_10000000_p48.txt
Logical CPUs: 48
Max procs: 48
Runs: 10
Problem size: n = 10000000
	Bitonic Sort:
		Exec time 1: 29.436280864s
		Exec time 2: 29.425631914s
		Exec time 3: 28.94818938s
		Exec time 4: 28.836162701s
		Exec time 5: 29.288601137s
		Exec time 6: 29.583484791s
		Exec time 7: 29.161749251s
		Exec time 8: 29.383629597s
		Exec time 9: 28.960995564s
		Exec time 10: 29.419058002s
		Exec time avg: 29244378320ns
	Mergesort:
		Exec time 1: 1.440846683s
		Exec time 2: 1.105652993s
		Exec time 3: 765.119976ms
		Exec time 4: 1.398385341s
		Exec time 5: 1.253141393s
		Exec time 6: 785.12972ms
		Exec time 7: 1.391104554s
		Exec time 8: 781.162924ms
		Exec time 9: 1.567775966s
		Exec time 10: 1.442041964s
		Exec time avg: 1193036151ns
	Quicksort:
		Exec time 1: 5.777204559s
		Exec time 2: 5.766438696s
		Exec time 3: 5.761940029s
		Exec time 4: 5.702279634s
		Exec time 5: 5.767715509s
		Exec time 6: 5.670715552s
		Exec time 7: 5.739344165s
		Exec time 8: 5.749575483s
		Exec time 9: 5.815132907s
		Exec time 10: 5.812808676s
		Exec time avg: 5756315521ns
	Radix Sort:
		Exec time 1: 31.154034642s
		Exec time 2: 31.571877394s
		Exec time 3: 31.372673738s
		Exec time 4: 31.224378965s
		Exec time 5: 31.657142532s
		Exec time 6: 31.276910518s
		Exec time 7: 31.236006972s
		Exec time 8: 31.32742883s
		Exec time 9: 31.636008333s
		Exec time 10: 31.391385802s
		Exec time avg: 31384784772ns
Job: Input: ./input/AscendingOrderHighOnFirstHalfAndLowOnSecondHalf_1000000.txt Output: ./output/AscendingOrderHighOnFirstHalfAndLowOnSecondHalf_1000000_p1.txt Procs: 1 Runs: 10
Input file: ./input/AscendingOrderHighOnFirstHalfAndLowOnSecondHalf_1000000.txt
Output file: ./output/AscendingOrderHighOnFirstHalfAndLowOnSecondHalf_1000000_p1.txt
Logical CPUs: 48
Max procs: 1
Runs: 10
Problem size: n = 1000000
	Bitonic Sort:
		Exec time 1: 11.402169856s
		Exec time 2: 13.298650868s
		Exec time 3: 12.896200503s
		Exec time 4: 12.627408465s
		Exec time 5: 12.07370023s
		Exec time 6: 11.389012842s
		Exec time 7: 11.755944825s
		Exec time 8: 11.48324684s
		Exec time 9: 12.290122219s
		Exec time 10: 12.973002676s
		Exec time avg: 12218945932ns
	Mergesort:
		Exec time 1: 141.423496ms
		Exec time 2: 125.219454ms
		Exec time 3: 158.036066ms
		Exec time 4: 145.225982ms
		Exec time 5: 142.089814ms
		Exec time 6: 142.086341ms
		Exec time 7: 148.331211ms
		Exec time 8: 142.02725ms
		Exec time 9: 149.812378ms
		Exec time 10: 131.313218ms
		Exec time avg: 142556521ns
	Quicksort:
		Exec time 1: 288.913142ms
		Exec time 2: 288.386889ms
		Exec time 3: 283.011335ms
		Exec time 4: 293.862243ms
		Exec time 5: 282.840323ms
		Exec time 6: 293.290837ms
		Exec time 7: 282.377394ms
		Exec time 8: 292.348493ms
		Exec time 9: 288.851038ms
		Exec time 10: 298.394714ms
		Exec time avg: 289227640ns
	Radix Sort:
		Exec time 1: 5.543767202s
		Exec time 2: 5.231465636s
		Exec time 3: 5.11587482s
		Exec time 4: 5.403998299s
		Exec time 5: 5.267036571s
		Exec time 6: 5.343151916s
		Exec time 7: 5.235003045s
		Exec time 8: 5.918514006s
		Exec time 9: 4.77989451s
		Exec time 10: 5.936753279s
		Exec time avg: 5377545928ns
Job: Input: ./input/AscendingOrderHighOnFirstHalfAndLowOnSecondHalf_1000000.txt Output: ./output/AscendingOrderHighOnFirstHalfAndLowOnSecondHalf_1000000_p24.txt Procs: 24 Runs: 10
Input file: ./input/AscendingOrderHighOnFirstHalfAndLowOnSecondHalf_1000000.txt
Output file: ./output/AscendingOrderHighOnFirstHalfAndLowOnSecondHalf_1000000_p24.txt
Logical CPUs: 48
Max procs: 24
Runs: 10
Problem size: n = 1000000
	Bitonic Sort:
		Exec time 1: 1.300220653s
		Exec time 2: 1.509989213s
		Exec time 3: 1.26884592s
		Exec time 4: 1.224208648s
		Exec time 5: 1.545032705s
		Exec time 6: 1.498922291s
		Exec time 7: 1.757480939s
		Exec time 8: 1.705499628s
		Exec time 9: 1.511695131s
		Exec time 10: 1.543383249s
		Exec time avg: 1486527837ns
	Mergesort:
		Exec time 1: 77.114442ms
		Exec time 2: 128.165795ms
		Exec time 3: 72.734307ms
		Exec time 4: 124.371744ms
		Exec time 5: 81.610317ms
		Exec time 6: 121.101758ms
		Exec time 7: 80.881189ms
		Exec time 8: 82.857095ms
		Exec time 9: 137.334477ms
		Exec time 10: 86.795906ms
		Exec time avg: 99296703ns
	Quicksort:
		Exec time 1: 513.519435ms
		Exec time 2: 536.004457ms
		Exec time 3: 531.378333ms
		Exec time 4: 545.790111ms
		Exec time 5: 546.50649ms
		Exec time 6: 563.992661ms
		Exec time 7: 552.189608ms
		Exec time 8: 552.649975ms
		Exec time 9: 544.729055ms
		Exec time 10: 544.479373ms
		Exec time avg: 543123949ns
	Radix Sort:
		Exec time 1: 2.091932376s
		Exec time 2: 2.346536262s
		Exec time 3: 1.739499177s
		Exec time 4: 2.285418653s
		Exec time 5: 2.243690284s
		Exec time 6: 1.784107965s
		Exec time 7: 2.065656874s
		Exec time 8: 2.480289708s
		Exec time 9: 1.919056804s
		Exec time 10: 2.430201809s
		Exec time avg: 2138638991ns
Job: Input: ./input/AscendingOrderHighOnFirstHalfAndLowOnSecondHalf_1000000.txt Output: ./output/AscendingOrderHighOnFirstHalfAndLowOnSecondHalf_1000000_p48.txt Procs: 48 Runs: 10
Input file: ./input/AscendingOrderHighOnFirstHalfAndLowOnSecondHalf_1000000.txt
Output file: ./output/AscendingOrderHighOnFirstHalfAndLowOnSecondHalf_1000000_p48.txt
Logical CPUs: 48
Max procs: 48
Runs: 10
Problem size: n = 1000000
	Bitonic Sort:
		Exec time 1: 1.427101399s
		Exec time 2: 1.351169998s
		Exec time 3: 1.5514298s
		Exec time 4: 1.35494826s
		Exec time 5: 1.463341938s
		Exec time 6: 1.422390901s
		Exec time 7: 1.435781213s
		Exec time 8: 1.408343525s
		Exec time 9: 1.417267163s
		Exec time 10: 1.36131768s
		Exec time avg: 1419309187ns
	Mergesort:
		Exec time 1: 74.188421ms
		Exec time 2: 80.921976ms
		Exec time 3: 109.741799ms
		Exec time 4: 77.598138ms
		Exec time 5: 77.664356ms
		Exec time 6: 129.834575ms
		Exec time 7: 83.958917ms
		Exec time 8: 108.390188ms
		Exec time 9: 70.509998ms
		Exec time 10: 79.982743ms
		Exec time avg: 89279111ns
	Quicksort:
		Exec time 1: 576.068021ms
		Exec time 2: 579.198381ms
		Exec time 3: 564.956167ms
		Exec time 4: 572.311738ms
		Exec time 5: 565.212031ms
		Exec time 6: 581.985257ms
		Exec time 7: 569.523044ms
		Exec time 8: 569.88478ms
		Exec time 9: 576.560421ms
		Exec time 10: 573.394047ms
		Exec time avg: 572909388ns
	Radix Sort:
		Exec time 1: 2.783541241s
		Exec time 2: 2.774833873s
		Exec time 3: 2.781944016s
		Exec time 4: 2.80665728s
		Exec time 5: 2.80365385s
		Exec time 6: 2.828655512s
		Exec time 7: 2.795338886s
		Exec time 8: 2.83325886s
		Exec time 9: 2.797178373s
		Exec time 10: 2.851801993s
		Exec time avg: 2805686388ns
Job: Input: ./input/AscendingOrderHighOnFirstHalfAndLowOnSecondHalf_100000.txt Output: ./output/AscendingOrderHighOnFirstHalfAndLowOnSecondHalf_100000_p1.txt Procs: 1 Runs: 10
Input file: ./input/AscendingOrderHighOnFirstHalfAndLowOnSecondHalf_100000.txt
Output file: ./output/AscendingOrderHighOnFirstHalfAndLowOnSecondHalf_100000_p1.txt
Logical CPUs: 48
Max procs: 1
Runs: 10
Problem size: n = 100000
	Bitonic Sort:
		Exec time 1: 957.385403ms
		Exec time 2: 929.332992ms
		Exec time 3: 1.016028288s
		Exec time 4: 1.002560191s
		Exec time 5: 1.003949752s
		Exec time 6: 955.40425ms
		Exec time 7: 952.620699ms
		Exec time 8: 1.001736918s
		Exec time 9: 1.009415776s
		Exec time 10: 987.181392ms
		Exec time avg: 981561566ns
	Mergesort:
		Exec time 1: 17.07449ms
		Exec time 2: 12.399844ms
		Exec time 3: 13.65488ms
		Exec time 4: 11.99877ms
		Exec time 5: 11.546484ms
		Exec time 6: 11.65995ms
		Exec time 7: 10.392623ms
		Exec time 8: 11.08124ms
		Exec time 9: 9.607668ms
		Exec time 10: 9.931019ms
		Exec time avg: 11934696ns
	Quicksort:
		Exec time 1: 26.45993ms
		Exec time 2: 27.336512ms
		Exec time 3: 26.461079ms
		Exec time 4: 27.085566ms
		Exec time 5: 26.351778ms
		Exec time 6: 29.515853ms
		Exec time 7: 26.925455ms
		Exec time 8: 28.277893ms
		Exec time 9: 26.648476ms
		Exec time 10: 27.441774ms
		Exec time avg: 27250431ns
	Radix Sort:
		Exec time 1: 362.822465ms
		Exec time 2: 300.767692ms
		Exec time 3: 352.21707ms
		Exec time 4: 277.679058ms
		Exec time 5: 338.569178ms
		Exec time 6: 289.205779ms
		Exec time 7: 310.866146ms
		Exec time 8: 315.35344ms
		Exec time 9: 299.799564ms
		Exec time 10: 402.452929ms
		Exec time avg: 324973332ns
Job: Input: ./input/AscendingOrderHighOnFirstHalfAndLowOnSecondHalf_100000.txt Output: ./output/AscendingOrderHighOnFirstHalfAndLowOnSecondHalf_100000_p24.txt Procs: 24 Runs: 10
Input file: ./input/AscendingOrderHighOnFirstHalfAndLowOnSecondHalf_100000.txt
Output file: ./output/AscendingOrderHighOnFirstHalfAndLowOnSecondHalf_100000_p24.txt
Logical CPUs: 48
Max procs: 24
Runs: 10
Problem size: n = 100000
	Bitonic Sort:
		Exec time 1: 168.342563ms
		Exec time 2: 106.727729ms
		Exec time 3: 116.096184ms
		Exec time 4: 117.827362ms
		Exec time 5: 107.778136ms
		Exec time 6: 128.654505ms
		Exec time 7: 131.009167ms
		Exec time 8: 107.558331ms
		Exec time 9: 108.319068ms
		Exec time 10: 108.583753ms
		Exec time avg: 120089679ns
	Mergesort:
		Exec time 1: 6.919481ms
		Exec time 2: 7.490656ms
		Exec time 3: 3.157018ms
		Exec time 4: 3.837119ms
		Exec time 5: 2.33493ms
		Exec time 6: 8.701806ms
		Exec time 7: 8.699253ms
		Exec time 8: 7.276881ms
		Exec time 9: 8.843794ms
		Exec time 10: 2.239315ms
		Exec time avg: 5950025ns
	Quicksort:
		Exec time 1: 52.009698ms
		Exec time 2: 51.11955ms
		Exec time 3: 42.287952ms
		Exec time 4: 52.232404ms
		Exec time 5: 50.91924ms
		Exec time 6: 51.848604ms
		Exec time 7: 51.434904ms
		Exec time 8: 51.646271ms
		Exec time 9: 51.135627ms
		Exec time 10: 51.154477ms
		Exec time avg: 50578872ns
	Radix Sort:
		Exec time 1: 107.902089ms
		Exec time 2: 136.675633ms
		Exec time 3: 134.588711ms
		Exec time 4: 107.435657ms
		Exec time 5: 108.737269ms
		Exec time 6: 105.386728ms
		Exec time 7: 118.125883ms
		Exec time 8: 107.255422ms
		Exec time 9: 129.373915ms
		Exec time 10: 107.478053ms
		Exec time avg: 116295936ns
Job: Input: ./input/AscendingOrderHighOnFirstHalfAndLowOnSecondHalf_100000.txt Output: ./output/AscendingOrderHighOnFirstHalfAndLowOnSecondHalf_100000_p48.txt Procs: 48 Runs: 10
Input file: ./input/AscendingOrderHighOnFirstHalfAndLowOnSecondHalf_100000.txt
Output file: ./output/AscendingOrderHighOnFirstHalfAndLowOnSecondHalf_100000_p48.txt
Logical CPUs: 48
Max procs: 48
Runs: 10
Problem size: n = 100000
	Bitonic Sort:
		Exec time 1: 163.062514ms
		Exec time 2: 147.340644ms
		Exec time 3: 147.924891ms
		Exec time 4: 144.838639ms
		Exec time 5: 145.950607ms
		Exec time 6: 148.385606ms
		Exec time 7: 144.970751ms
		Exec time 8: 156.117489ms
		Exec time 9: 152.922682ms
		Exec time 10: 147.50113ms
		Exec time avg: 149901495ns
	Mergesort:
		Exec time 1: 2.092636ms
		Exec time 2: 13.827736ms
		Exec time 3: 11.536219ms
		Exec time 4: 3.245133ms
		Exec time 5: 15.277171ms
		Exec time 6: 11.083872ms
		Exec time 7: 3.354924ms
		Exec time 8: 13.343644ms
		Exec time 9: 11.491296ms
		Exec time 10: 3.552797ms
		Exec time avg: 8880542ns
	Quicksort:
		Exec time 1: 59.731618ms
		Exec time 2: 35.003233ms
		Exec time 3: 60.555224ms
		Exec time 4: 59.503515ms
		Exec time 5: 57.266097ms
		Exec time 6: 55.44169ms
		Exec time 7: 63.78561ms
		Exec time 8: 58.997349ms
		Exec time 9: 53.380735ms
		Exec time 10: 58.281033ms
		Exec time avg: 56194610ns
	Radix Sort:
		Exec time 1: 245.769954ms
		Exec time 2: 230.231469ms
		Exec time 3: 215.205089ms
		Exec time 4: 226.664079ms
		Exec time 5: 214.776393ms
		Exec time 6: 229.262042ms
		Exec time 7: 218.034451ms
		Exec time 8: 222.024604ms
		Exec time 9: 218.218723ms
		Exec time 10: 236.632384ms
		Exec time avg: 225681918ns
Job: Input: ./input/AscendingOrderHighOnFirstHalfAndLowOnSecondHalf_10000.txt Output: ./output/AscendingOrderHighOnFirstHalfAndLowOnSecondHalf_10000_p1.txt Procs: 1 Runs: 10
Input file: ./input/AscendingOrderHighOnFirstHalfAndLowOnSecondHalf_10000.txt
Output file: ./output/AscendingOrderHighOnFirstHalfAndLowOnSecondHalf_10000_p1.txt
Logical CPUs: 48
Max procs: 1
Runs: 10
Problem size: n = 10000
	Bitonic Sort:
		Exec time 1: 83.000879ms
		Exec time 2: 88.324539ms
		Exec time 3: 84.001743ms
		Exec time 4: 83.946126ms
		Exec time 5: 82.508098ms
		Exec time 6: 91.454219ms
		Exec time 7: 86.809467ms
		Exec time 8: 85.512075ms
		Exec time 9: 84.598952ms
		Exec time 10: 89.287049ms
		Exec time avg: 85944314ns
	Mergesort:
		Exec time 1: 2.424244ms
		Exec time 2: 605.946µs
		Exec time 3: 1.061781ms
		Exec time 4: 1.171188ms
		Exec time 5: 597.708µs
		Exec time 6: 777.331µs
		Exec time 7: 2.49611ms
		Exec time 8: 1.093343ms
		Exec time 9: 849.174µs
		Exec time 10: 1.103051ms
		Exec time avg: 1217987ns
	Quicksort:
		Exec time 1: 3.15319ms
		Exec time 2: 2.914922ms
		Exec time 3: 3.003275ms
		Exec time 4: 2.916212ms
		Exec time 5: 2.724508ms
		Exec time 6: 2.97316ms
		Exec time 7: 3.028008ms
		Exec time 8: 3.101593ms
		Exec time 9: 2.992115ms
		Exec time 10: 2.699973ms
		Exec time avg: 2950695ns
	Radix Sort:
		Exec time 1: 17.172473ms
		Exec time 2: 16.084205ms
		Exec time 3: 18.838626ms
		Exec time 4: 37.614857ms
		Exec time 5: 29.543885ms
		Exec time 6: 20.485678ms
		Exec time 7: 41.085525ms
		Exec time 8: 17.745822ms
		Exec time 9: 17.459055ms
		Exec time 10: 21.264756ms
		Exec time avg: 23729488ns
Job: Input: ./input/AscendingOrderHighOnFirstHalfAndLowOnSecondHalf_10000.txt Output: ./output/AscendingOrderHighOnFirstHalfAndLowOnSecondHalf_10000_p24.txt Procs: 24 Runs: 10
Input file: ./input/AscendingOrderHighOnFirstHalfAndLowOnSecondHalf_10000.txt
Output file: ./output/AscendingOrderHighOnFirstHalfAndLowOnSecondHalf_10000_p24.txt
Logical CPUs: 48
Max procs: 24
Runs: 10
Problem size: n = 10000
	Bitonic Sort:
		Exec time 1: 18.157607ms
		Exec time 2: 10.723286ms
		Exec time 3: 17.27986ms
		Exec time 4: 12.029452ms
		Exec time 5: 12.812036ms
		Exec time 6: 15.351487ms
		Exec time 7: 13.217183ms
		Exec time 8: 15.057623ms
		Exec time 9: 17.875908ms
		Exec time 10: 12.717249ms
		Exec time avg: 14522169ns
	Mergesort:
		Exec time 1: 2.652501ms
		Exec time 2: 592.004µs
		Exec time 3: 594.045µs
		Exec time 4: 363.949µs
		Exec time 5: 429.71µs
		Exec time 6: 2.426189ms
		Exec time 7: 738.61µs
		Exec time 8: 814.862µs
		Exec time 9: 431.707µs
		Exec time 10: 2.227087ms
		Exec time avg: 1127066ns
	Quicksort:
		Exec time 1: 3.598781ms
		Exec time 2: 5.332366ms
		Exec time 3: 3.645257ms
		Exec time 4: 3.626728ms
		Exec time 5: 5.662252ms
		Exec time 6: 3.650363ms
		Exec time 7: 5.033383ms
		Exec time 8: 4.364032ms
		Exec time 9: 3.510456ms
		Exec time 10: 3.488173ms
		Exec time avg: 4191179ns
	Radix Sort:
		Exec time 1: 8.455305ms
		Exec time 2: 10.779367ms
		Exec time 3: 8.459296ms
		Exec time 4: 9.068843ms
		Exec time 5: 9.979764ms
		Exec time 6: 8.783921ms
		Exec time 7: 8.259744ms
		Exec time 8: 13.133964ms
		Exec time 9: 10.412694ms
		Exec time 10: 10.814421ms
		Exec time avg: 9814731ns
Job: Input: ./input/AscendingOrderHighOnFirstHalfAndLowOnSecondHalf_10000.txt Output: ./output/AscendingOrderHighOnFirstHalfAndLowOnSecondHalf_10000_p48.txt Procs: 48 Runs: 10
Input file: ./input/AscendingOrderHighOnFirstHalfAndLowOnSecondHalf_10000.txt
Output file: ./output/AscendingOrderHighOnFirstHalfAndLowOnSecondHalf_10000_p48.txt
Logical CPUs: 48
Max procs: 48
Runs: 10
Problem size: n = 10000
	Bitonic Sort:
		Exec time 1: 20.259207ms
		Exec time 2: 20.043511ms
		Exec time 3: 21.689378ms
		Exec time 4: 16.325163ms
		Exec time 5: 18.98345ms
		Exec time 6: 16.63024ms
		Exec time 7: 21.57129ms
		Exec time 8: 17.343598ms
		Exec time 9: 21.861982ms
		Exec time 10: 16.51823ms
		Exec time avg: 19122604ns
	Mergesort:
		Exec time 1: 5.47413ms
		Exec time 2: 626.3µs
		Exec time 3: 373.15µs
		Exec time 4: 1.003827ms
		Exec time 5: 779.431µs
		Exec time 6: 2.505588ms
		Exec time 7: 494.324µs
		Exec time 8: 498.755µs
		Exec time 9: 572.007µs
		Exec time 10: 495.635µs
		Exec time avg: 1282314ns
	Quicksort:
		Exec time 1: 3.699595ms
		Exec time 2: 5.447159ms
		Exec time 3: 3.526876ms
		Exec time 4: 4.474597ms
		Exec time 5: 4.913541ms
		Exec time 6: 5.224842ms
		Exec time 7: 3.537426ms
		Exec time 8: 4.603069ms
		Exec time 9: 3.521994ms
		Exec time 10: 4.329824ms
		Exec time avg: 4327892ns
	Radix Sort:
		Exec time 1: 21.16826ms
		Exec time 2: 17.057492ms
		Exec time 3: 16.216994ms
		Exec time 4: 20.585071ms
		Exec time 5: 16.789375ms
		Exec time 6: 11.828602ms
		Exec time 7: 22.516823ms
		Exec time 8: 20.78664ms
		Exec time 9: 12.974095ms
		Exec time 10: 24.429321ms
		Exec time avg: 18435267ns
Job: Input: ./input/AscendingOrderHighOnFirstHalfAndLowOnSecondHalf_1000.txt Output: ./output/AscendingOrderHighOnFirstHalfAndLowOnSecondHalf_1000_p1.txt Procs: 1 Runs: 10
Input file: ./input/AscendingOrderHighOnFirstHalfAndLowOnSecondHalf_1000.txt
Output file: ./output/AscendingOrderHighOnFirstHalfAndLowOnSecondHalf_1000_p1.txt
Logical CPUs: 48
Max procs: 1
Runs: 10
Problem size: n = 1000
	Bitonic Sort:
		Exec time 1: 4.819788ms
		Exec time 2: 3.915442ms
		Exec time 3: 3.390976ms
		Exec time 4: 3.763946ms
		Exec time 5: 3.845042ms
		Exec time 6: 3.469948ms
		Exec time 7: 3.861878ms
		Exec time 8: 3.379087ms
		Exec time 9: 3.72051ms
		Exec time 10: 3.776684ms
		Exec time avg: 3794330ns
	Mergesort:
		Exec time 1: 71.956µs
		Exec time 2: 58.702µs
		Exec time 3: 72.522µs
		Exec time 4: 58.823µs
		Exec time 5: 52.237µs
		Exec time 6: 60.19µs
		Exec time 7: 153.001µs
		Exec time 8: 164.13µs
		Exec time 9: 76.9µs
		Exec time 10: 155.049µs
		Exec time avg: 92351ns
	Quicksort:
		Exec time 1: 798.667µs
		Exec time 2: 723.83µs
		Exec time 3: 466.609µs
		Exec time 4: 300.338µs
		Exec time 5: 547.557µs
		Exec time 6: 555.791µs
		Exec time 7: 578.504µs
		Exec time 8: 273.348µs
		Exec time 9: 386.667µs
		Exec time 10: 997.038µs
		Exec time avg: 562834ns
	Radix Sort:
		Exec time 1: 1.413181ms
		Exec time 2: 2.046992ms
		Exec time 3: 1.277071ms
		Exec time 4: 1.398201ms
		Exec time 5: 1.49397ms
		Exec time 6: 2.123789ms
		Exec time 7: 1.146285ms
		Exec time 8: 1.520194ms
		Exec time 9: 2.07615ms
		Exec time 10: 1.290918ms
		Exec time avg: 1578675ns
Job: Input: ./input/AscendingOrderHighOnFirstHalfAndLowOnSecondHalf_1000.txt Output: ./output/AscendingOrderHighOnFirstHalfAndLowOnSecondHalf_1000_p24.txt Procs: 24 Runs: 10
Input file: ./input/AscendingOrderHighOnFirstHalfAndLowOnSecondHalf_1000.txt
Output file: ./output/AscendingOrderHighOnFirstHalfAndLowOnSecondHalf_1000_p24.txt
Logical CPUs: 48
Max procs: 24
Runs: 10
Problem size: n = 1000
	Bitonic Sort:
		Exec time 1: 2.426301ms
		Exec time 2: 3.263617ms
		Exec time 3: 1.873988ms
		Exec time 4: 2.291869ms
		Exec time 5: 2.873191ms
		Exec time 6: 1.139623ms
		Exec time 7: 1.070544ms
		Exec time 8: 1.156183ms
		Exec time 9: 1.34864ms
		Exec time 10: 1.583356ms
		Exec time avg: 1902731ns
	Mergesort:
		Exec time 1: 224.853µs
		Exec time 2: 313.366µs
		Exec time 3: 280.786µs
		Exec time 4: 311.091µs
		Exec time 5: 1.09854ms
		Exec time 6: 228.022µs
		Exec time 7: 237.869µs
		Exec time 8: 215.345µs
		Exec time 9: 324.553µs
		Exec time 10: 84.566µs
		Exec time avg: 331899ns
	Quicksort:
		Exec time 1: 495.39µs
		Exec time 2: 472.719µs
		Exec time 3: 571.896µs
		Exec time 4: 593.034µs
		Exec time 5: 468.603µs
		Exec time 6: 715.065µs
		Exec time 7: 445.482µs
		Exec time 8: 620.03µs
		Exec time 9: 311.708µs
		Exec time 10: 517.024µs
		Exec time avg: 521095ns
	Radix Sort:
		Exec time 1: 1.234861ms
		Exec time 2: 1.10948ms
		Exec time 3: 839.559µs
		Exec time 4: 1.306079ms
		Exec time 5: 1.568281ms
		Exec time 6: 1.194705ms
		Exec time 7: 2.182864ms
		Exec time 8: 768.361µs
		Exec time 9: 1.467897ms
		Exec time 10: 1.260634ms
		Exec time avg: 1293272ns
Job: Input: ./input/AscendingOrderHighOnFirstHalfAndLowOnSecondHalf_1000.txt Output: ./output/AscendingOrderHighOnFirstHalfAndLowOnSecondHalf_1000_p48.txt Procs: 48 Runs: 10
Input file: ./input/AscendingOrderHighOnFirstHalfAndLowOnSecondHalf_1000.txt
Output file: ./output/AscendingOrderHighOnFirstHalfAndLowOnSecondHalf_1000_p48.txt
Logical CPUs: 48
Max procs: 48
Runs: 10
Problem size: n = 1000
	Bitonic Sort:
		Exec time 1: 2.543389ms
		Exec time 2: 1.301658ms
		Exec time 3: 1.276987ms
		Exec time 4: 1.500697ms
		Exec time 5: 2.064305ms
		Exec time 6: 1.761072ms
		Exec time 7: 2.300632ms
		Exec time 8: 1.657916ms
		Exec time 9: 1.538087ms
		Exec time 10: 1.848826ms
		Exec time avg: 1779356ns
	Mergesort:
		Exec time 1: 176.32µs
		Exec time 2: 61.124µs
		Exec time 3: 84.68µs
		Exec time 4: 53.426µs
		Exec time 5: 1.675871ms
		Exec time 6: 170.958µs
		Exec time 7: 175.915µs
		Exec time 8: 99.818µs
		Exec time 9: 188.376µs
		Exec time 10: 191.965µs
		Exec time avg: 287845ns
	Quicksort:
		Exec time 1: 567.105µs
		Exec time 2: 635.887µs
		Exec time 3: 701.661µs
		Exec time 4: 595.005µs
		Exec time 5: 866.361µs
		Exec time 6: 690.129µs
		Exec time 7: 833.972µs
		Exec time 8: 762.333µs
		Exec time 9: 615.412µs
		Exec time 10: 498.789µs
		Exec time avg: 676665ns
	Radix Sort:
		Exec time 1: 1.30291ms
		Exec time 2: 1.482055ms
		Exec time 3: 1.325876ms
		Exec time 4: 1.214771ms
		Exec time 5: 1.134649ms
		Exec time 6: 1.180451ms
		Exec time 7: 2.626511ms
		Exec time 8: 1.491703ms
		Exec time 9: 1.207017ms
		Exec time 10: 1.131023ms
		Exec time avg: 1409696ns
Job: Input: ./input/AscendingOrderHighOnFirstHalfAndLowOnSecondHalf_100.txt Output: ./output/AscendingOrderHighOnFirstHalfAndLowOnSecondHalf_100_p1.txt Procs: 1 Runs: 10
Input file: ./input/AscendingOrderHighOnFirstHalfAndLowOnSecondHalf_100.txt
Output file: ./output/AscendingOrderHighOnFirstHalfAndLowOnSecondHalf_100_p1.txt
Logical CPUs: 48
Max procs: 1
Runs: 10
Problem size: n = 100
	Bitonic Sort:
		Exec time 1: 481.136µs
		Exec time 2: 1.052548ms
		Exec time 3: 331.41µs
		Exec time 4: 550.073µs
		Exec time 5: 1.067907ms
		Exec time 6: 345.663µs
		Exec time 7: 391.964µs
		Exec time 8: 677.415µs
		Exec time 9: 542.453µs
		Exec time 10: 890.656µs
		Exec time avg: 633122ns
	Mergesort:
		Exec time 1: 21.912µs
		Exec time 2: 30.858µs
		Exec time 3: 23.317µs
		Exec time 4: 18.637µs
		Exec time 5: 45.087µs
		Exec time 6: 25µs
		Exec time 7: 22.858µs
		Exec time 8: 40.314µs
		Exec time 9: 49.74µs
		Exec time 10: 21.189µs
		Exec time avg: 29891ns
	Quicksort:
		Exec time 1: 107.815µs
		Exec time 2: 110.466µs
		Exec time 3: 108.959µs
		Exec time 4: 141.081µs
		Exec time 5: 98.165µs
		Exec time 6: 110.374µs
		Exec time 7: 107.494µs
		Exec time 8: 104.669µs
		Exec time 9: 104.916µs
		Exec time 10: 105.419µs
		Exec time avg: 109935ns
	Radix Sort:
		Exec time 1: 210.794µs
		Exec time 2: 280.101µs
		Exec time 3: 272.967µs
		Exec time 4: 295.959µs
		Exec time 5: 376.267µs
		Exec time 6: 325.131µs
		Exec time 7: 119.203µs
		Exec time 8: 105.775µs
		Exec time 9: 270.223µs
		Exec time 10: 143.242µs
		Exec time avg: 239966ns
Job: Input: ./input/AscendingOrderHighOnFirstHalfAndLowOnSecondHalf_100.txt Output: ./output/AscendingOrderHighOnFirstHalfAndLowOnSecondHalf_100_p24.txt Procs: 24 Runs: 10
Input file: ./input/AscendingOrderHighOnFirstHalfAndLowOnSecondHalf_100.txt
Output file: ./output/AscendingOrderHighOnFirstHalfAndLowOnSecondHalf_100_p24.txt
Logical CPUs: 48
Max procs: 24
Runs: 10
Problem size: n = 100
	Bitonic Sort:
		Exec time 1: 373.941µs
		Exec time 2: 1.446183ms
		Exec time 3: 531.65µs
		Exec time 4: 508.012µs
		Exec time 5: 477.792µs
		Exec time 6: 283.961µs
		Exec time 7: 323.313µs
		Exec time 8: 372.06µs
		Exec time 9: 514.567µs
		Exec time 10: 491.58µs
		Exec time avg: 532305ns
	Mergesort:
		Exec time 1: 36.529µs
		Exec time 2: 18.82µs
		Exec time 3: 18.439µs
		Exec time 4: 19.394µs
		Exec time 5: 36.025µs
		Exec time 6: 5.928µs
		Exec time 7: 41.936µs
		Exec time 8: 24.057µs
		Exec time 9: 36.371µs
		Exec time 10: 10.117µs
		Exec time avg: 24761ns
	Quicksort:
		Exec time 1: 177.183µs
		Exec time 2: 53.732µs
		Exec time 3: 108.358µs
		Exec time 4: 108.13µs
		Exec time 5: 101.576µs
		Exec time 6: 109.144µs
		Exec time 7: 918.494µs
		Exec time 8: 115.896µs
		Exec time 9: 54.949µs
		Exec time 10: 102.453µs
		Exec time avg: 184991ns
	Radix Sort:
		Exec time 1: 170.678µs
		Exec time 2: 204.328µs
		Exec time 3: 183.25µs
		Exec time 4: 216.62µs
		Exec time 5: 228.818µs
		Exec time 6: 226.797µs
		Exec time 7: 210.543µs
		Exec time 8: 211.899µs
		Exec time 9: 199.004µs
		Exec time 10: 439.577µs
		Exec time avg: 229151ns
Job: Input: ./input/AscendingOrderHighOnFirstHalfAndLowOnSecondHalf_100.txt Output: ./output/AscendingOrderHighOnFirstHalfAndLowOnSecondHalf_100_p48.txt Procs: 48 Runs: 10
Input file: ./input/AscendingOrderHighOnFirstHalfAndLowOnSecondHalf_100.txt
Output file: ./output/AscendingOrderHighOnFirstHalfAndLowOnSecondHalf_100_p48.txt
Logical CPUs: 48
Max procs: 48
Runs: 10
Problem size: n = 100
	Bitonic Sort:
		Exec time 1: 982.388µs
		Exec time 2: 570.02µs
		Exec time 3: 847.921µs
		Exec time 4: 305.233µs
		Exec time 5: 511.3µs
		Exec time 6: 340.589µs
		Exec time 7: 487.595µs
		Exec time 8: 290.803µs
		Exec time 9: 463.335µs
		Exec time 10: 496.687µs
		Exec time avg: 529587ns
	Mergesort:
		Exec time 1: 34.949µs
		Exec time 2: 35.605µs
		Exec time 3: 36.099µs
		Exec time 4: 36.567µs
		Exec time 5: 36.186µs
		Exec time 6: 43.637µs
		Exec time 7: 36.815µs
		Exec time 8: 36.912µs
		Exec time 9: 6.394µs
		Exec time 10: 5.809µs
		Exec time avg: 30897ns
	Quicksort:
		Exec time 1: 109.22µs
		Exec time 2: 105.197µs
		Exec time 3: 37.169µs
		Exec time 4: 118.867µs
		Exec time 5: 100.128µs
		Exec time 6: 123.053µs
		Exec time 7: 96.402µs
		Exec time 8: 116.293µs
		Exec time 9: 234.916µs
		Exec time 10: 51.319µs
		Exec time avg: 109256ns
	Radix Sort:
		Exec time 1: 206.867µs
		Exec time 2: 228.784µs
		Exec time 3: 169.081µs
		Exec time 4: 207.409µs
		Exec time 5: 221.324µs
		Exec time 6: 455.592µs
		Exec time 7: 108.221µs
		Exec time 8: 107.626µs
		Exec time 9: 214.276µs
		Exec time 10: 200.641µs
		Exec time avg: 211982ns
Job: Input: ./input/MergeSortWorstCase_1000000.txt Output: ./output/MergeSortWorstCase_1000000_p1.txt Procs: 1 Runs: 10
Input file: ./input/MergeSortWorstCase_1000000.txt
Output file: ./output/MergeSortWorstCase_1000000_p1.txt
Logical CPUs: 48
Max procs: 1
Runs: 10
Problem size: n = 1000000
	Bitonic Sort:
		Exec time 1: 12.206909907s
		Exec time 2: 12.250736431s
		Exec time 3: 12.200232725s
		Exec time 4: 12.28551607s
		Exec time 5: 12.195041742s
		Exec time 6: 12.531738678s
		Exec time 7: 12.440877245s
		Exec time 8: 11.5679619s
		Exec time 9: 11.882815361s
		Exec time 10: 11.739691281s
		Exec time avg: 12130152134ns
	Mergesort:
		Exec time 1: 140.018509ms
		Exec time 2: 150.777309ms
		Exec time 3: 152.20547ms
		Exec time 4: 141.884043ms
		Exec time 5: 123.836589ms
		Exec time 6: 139.909362ms
		Exec time 7: 140.724249ms
		Exec time 8: 145.881543ms
		Exec time 9: 175.991067ms
		Exec time 10: 153.363696ms
		Exec time avg: 146459183ns
	Quicksort:
		Exec time 1: 342.283969ms
		Exec time 2: 336.151816ms
		Exec time 3: 337.647654ms
		Exec time 4: 329.80724ms
		Exec time 5: 335.014137ms
		Exec time 6: 318.535091ms
		Exec time 7: 340.917914ms
		Exec time 8: 335.448794ms
		Exec time 9: 329.84185ms
		Exec time 10: 336.547261ms
		Exec time avg: 334219572ns
	Radix Sort:
		Exec time 1: 5.490314699s
		Exec time 2: 5.043026159s
		Exec time 3: 5.556798788s
		Exec time 4: 5.794208416s
		Exec time 5: 6.052642037s
		Exec time 6: 6.242008466s
		Exec time 7: 5.077415968s
		Exec time 8: 5.21117882s
		Exec time 9: 5.332537853s
		Exec time 10: 5.14172975s
		Exec time avg: 5494186095ns
Job: Input: ./input/MergeSortWorstCase_1000000.txt Output: ./output/MergeSortWorstCase_1000000_p24.txt Procs: 24 Runs: 10
Input file: ./input/MergeSortWorstCase_1000000.txt
Output file: ./output/MergeSortWorstCase_1000000_p24.txt
Logical CPUs: 48
Max procs: 24
Runs: 10
Problem size: n = 1000000
	Bitonic Sort:
		Exec time 1: 1.681473133s
		Exec time 2: 1.310799672s
		Exec time 3: 1.455782143s
		Exec time 4: 1.417541367s
		Exec time 5: 1.500047398s
		Exec time 6: 1.502923125s
		Exec time 7: 1.352491263s
		Exec time 8: 1.429983518s
		Exec time 9: 1.721706009s
		Exec time 10: 1.577619625s
		Exec time avg: 1495036725ns
	Mergesort:
		Exec time 1: 57.179215ms
		Exec time 2: 85.912511ms
		Exec time 3: 122.36046ms
		Exec time 4: 69.980717ms
		Exec time 5: 120.183107ms
		Exec time 6: 76.618037ms
		Exec time 7: 112.176341ms
		Exec time 8: 68.294031ms
		Exec time 9: 117.297956ms
		Exec time 10: 70.384722ms
		Exec time avg: 90038709ns
	Quicksort:
		Exec time 1: 565.853948ms
		Exec time 2: 576.108428ms
		Exec time 3: 594.613012ms
		Exec time 4: 602.066328ms
		Exec time 5: 608.131219ms
		Exec time 6: 593.222109ms
		Exec time 7: 573.751621ms
		Exec time 8: 588.692875ms
		Exec time 9: 577.43047ms
		Exec time 10: 568.110266ms
		Exec time avg: 584798027ns
	Radix Sort:
		Exec time 1: 2.0968297s
		Exec time 2: 1.422490377s
		Exec time 3: 1.424080669s
		Exec time 4: 1.816938144s
		Exec time 5: 1.462952391s
		Exec time 6: 1.386453323s
		Exec time 7: 1.395306225s
		Exec time 8: 1.374551663s
		Exec time 9: 1.614817642s
		Exec time 10: 1.378684798s
		Exec time avg: 1537310493ns
Job: Input: ./input/MergeSortWorstCase_1000000.txt Output: ./output/MergeSortWorstCase_1000000_p48.txt Procs: 48 Runs: 10
Input file: ./input/MergeSortWorstCase_1000000.txt
Output file: ./output/MergeSortWorstCase_1000000_p48.txt
Logical CPUs: 48
Max procs: 48
Runs: 10
Problem size: n = 1000000
	Bitonic Sort:
		Exec time 1: 1.411907592s
		Exec time 2: 1.382298302s
		Exec time 3: 1.384182241s
		Exec time 4: 1.423955734s
		Exec time 5: 1.387776316s
		Exec time 6: 1.519644288s
		Exec time 7: 1.369135871s
		Exec time 8: 1.517492043s
		Exec time 9: 1.397707473s
		Exec time 10: 1.427431846s
		Exec time avg: 1422153170ns
	Mergesort:
		Exec time 1: 74.060602ms
		Exec time 2: 80.146834ms
		Exec time 3: 86.307661ms
		Exec time 4: 144.137425ms
		Exec time 5: 78.381963ms
		Exec time 6: 79.583759ms
		Exec time 7: 82.596742ms
		Exec time 8: 141.494224ms
		Exec time 9: 78.913422ms
		Exec time 10: 86.130578ms
		Exec time avg: 93175321ns
	Quicksort:
		Exec time 1: 580.929892ms
		Exec time 2: 583.84032ms
		Exec time 3: 576.578ms
		Exec time 4: 562.427032ms
		Exec time 5: 566.321099ms
		Exec time 6: 581.093621ms
		Exec time 7: 581.81323ms
		Exec time 8: 570.466414ms
		Exec time 9: 571.882255ms
		Exec time 10: 584.775781ms
		Exec time avg: 576012764ns
	Radix Sort:
		Exec time 1: 2.633744132s
		Exec time 2: 2.653320119s
		Exec time 3: 2.667266912s
		Exec time 4: 2.577357166s
		Exec time 5: 2.604823574s
		Exec time 6: 2.605058833s
		Exec time 7: 2.712510613s
		Exec time 8: 2.648837362s
		Exec time 9: 2.619618086s
		Exec time 10: 2.541139247s
		Exec time avg: 2626367604ns
Job: Input: ./input/MergeSortWorstCase_100000.txt Output: ./output/MergeSortWorstCase_100000_p1.txt Procs: 1 Runs: 10
Input file: ./input/MergeSortWorstCase_100000.txt
Output file: ./output/MergeSortWorstCase_100000_p1.txt
Logical CPUs: 48
Max procs: 1
Runs: 10
Problem size: n = 100000
	Bitonic Sort:
		Exec time 1: 980.048111ms
		Exec time 2: 958.555036ms
		Exec time 3: 938.003669ms
		Exec time 4: 999.415647ms
		Exec time 5: 932.889709ms
		Exec time 6: 938.430271ms
		Exec time 7: 964.055572ms
		Exec time 8: 1.018209346s
		Exec time 9: 1.030324753s
		Exec time 10: 950.158151ms
		Exec time avg: 971009026ns
	Mergesort:
		Exec time 1: 11.553107ms
		Exec time 2: 11.164366ms
		Exec time 3: 15.099467ms
		Exec time 4: 11.161113ms
		Exec time 5: 11.108495ms
		Exec time 6: 9.407657ms
		Exec time 7: 8.975372ms
		Exec time 8: 8.669746ms
		Exec time 9: 9.004354ms
		Exec time 10: 8.638728ms
		Exec time avg: 10478240ns
	Quicksort:
		Exec time 1: 30.704621ms
		Exec time 2: 29.875831ms
		Exec time 3: 32.115449ms
		Exec time 4: 31.401623ms
		Exec time 5: 30.165368ms
		Exec time 6: 30.901504ms
		Exec time 7: 30.452436ms
		Exec time 8: 30.469029ms
		Exec time 9: 30.60726ms
		Exec time 10: 31.919572ms
		Exec time avg: 30861269ns
	Radix Sort:
		Exec time 1: 288.072046ms
		Exec time 2: 380.48701ms
		Exec time 3: 289.428353ms
		Exec time 4: 336.047084ms
		Exec time 5: 314.109527ms
		Exec time 6: 296.173572ms
		Exec time 7: 371.533643ms
		Exec time 8: 297.138918ms
		Exec time 9: 372.128579ms
		Exec time 10: 309.858489ms
		Exec time avg: 325497722ns
Job: Input: ./input/MergeSortWorstCase_100000.txt Output: ./output/MergeSortWorstCase_100000_p24.txt Procs: 24 Runs: 10
Input file: ./input/MergeSortWorstCase_100000.txt
Output file: ./output/MergeSortWorstCase_100000_p24.txt
Logical CPUs: 48
Max procs: 24
Runs: 10
Problem size: n = 100000
	Bitonic Sort:
		Exec time 1: 147.08662ms
		Exec time 2: 149.113361ms
		Exec time 3: 125.945711ms
		Exec time 4: 134.475305ms
		Exec time 5: 108.825064ms
		Exec time 6: 107.623122ms
		Exec time 7: 109.705013ms
		Exec time 8: 127.162351ms
		Exec time 9: 123.413852ms
		Exec time 10: 108.483465ms
		Exec time avg: 124183386ns
	Mergesort:
		Exec time 1: 8.07395ms
		Exec time 2: 2.705625ms
		Exec time 3: 10.566485ms
		Exec time 4: 6.566822ms
		Exec time 5: 3.792745ms
		Exec time 6: 2.99922ms
		Exec time 7: 9.366828ms
		Exec time 8: 8.647081ms
		Exec time 9: 3.208643ms
		Exec time 10: 8.059357ms
		Exec time avg: 6398675ns
	Quicksort:
		Exec time 1: 36.967216ms
		Exec time 2: 40.161098ms
		Exec time 3: 37.467789ms
		Exec time 4: 51.241969ms
		Exec time 5: 53.444891ms
		Exec time 6: 37.498057ms
		Exec time 7: 52.95561ms
		Exec time 8: 52.704329ms
		Exec time 9: 53.990641ms
		Exec time 10: 50.168407ms
		Exec time avg: 46660000ns
	Radix Sort:
		Exec time 1: 111.196104ms
		Exec time 2: 126.58688ms
		Exec time 3: 135.541981ms
		Exec time 4: 108.96359ms
		Exec time 5: 112.832757ms
		Exec time 6: 112.257264ms
		Exec time 7: 134.468119ms
		Exec time 8: 111.985256ms
		Exec time 9: 110.375965ms
		Exec time 10: 124.829989ms
		Exec time avg: 118903790ns
Job: Input: ./input/MergeSortWorstCase_100000.txt Output: ./output/MergeSortWorstCase_100000_p48.txt Procs: 48 Runs: 10
Input file: ./input/MergeSortWorstCase_100000.txt
Output file: ./output/MergeSortWorstCase_100000_p48.txt
Logical CPUs: 48
Max procs: 48
Runs: 10
Problem size: n = 100000
	Bitonic Sort:
		Exec time 1: 150.821942ms
		Exec time 2: 142.832235ms
		Exec time 3: 141.636932ms
		Exec time 4: 140.053661ms
		Exec time 5: 147.353418ms
		Exec time 6: 146.30073ms
		Exec time 7: 150.765283ms
		Exec time 8: 157.876064ms
		Exec time 9: 151.433439ms
		Exec time 10: 152.272356ms
		Exec time avg: 148134606ns
	Mergesort:
		Exec time 1: 3.563787ms
		Exec time 2: 18.349806ms
		Exec time 3: 10.655925ms
		Exec time 4: 3.202907ms
		Exec time 5: 11.284435ms
		Exec time 6: 4.438721ms
		Exec time 7: 2.483788ms
		Exec time 8: 11.729287ms
		Exec time 9: 2.109759ms
		Exec time 10: 15.246983ms
		Exec time avg: 8306539ns
	Quicksort:
		Exec time 1: 42.445271ms
		Exec time 2: 67.261604ms
		Exec time 3: 66.190946ms
		Exec time 4: 60.537296ms
		Exec time 5: 63.517656ms
		Exec time 6: 61.198136ms
		Exec time 7: 58.200601ms
		Exec time 8: 61.194611ms
		Exec time 9: 61.229078ms
		Exec time 10: 61.157434ms
		Exec time avg: 60293263ns
	Radix Sort:
		Exec time 1: 237.27099ms
		Exec time 2: 204.720944ms
		Exec time 3: 204.753545ms
		Exec time 4: 205.178739ms
		Exec time 5: 233.282717ms
		Exec time 6: 224.711711ms
		Exec time 7: 237.747406ms
		Exec time 8: 214.726499ms
		Exec time 9: 220.379316ms
		Exec time 10: 215.342236ms
		Exec time avg: 219811410ns
Job: Input: ./input/MergeSortWorstCase_10000.txt Output: ./output/MergeSortWorstCase_10000_p1.txt Procs: 1 Runs: 10
Input file: ./input/MergeSortWorstCase_10000.txt
Output file: ./output/MergeSortWorstCase_10000_p1.txt
Logical CPUs: 48
Max procs: 1
Runs: 10
Problem size: n = 10000
	Bitonic Sort:
		Exec time 1: 90.567899ms
		Exec time 2: 86.097741ms
		Exec time 3: 81.593332ms
		Exec time 4: 81.826911ms
		Exec time 5: 86.238379ms
		Exec time 6: 84.686587ms
		Exec time 7: 86.145496ms
		Exec time 8: 84.644746ms
		Exec time 9: 87.491705ms
		Exec time 10: 84.25373ms
		Exec time avg: 85354652ns
	Mergesort:
		Exec time 1: 2.070835ms
		Exec time 2: 1.23923ms
		Exec time 3: 1.246662ms
		Exec time 4: 2.514654ms
		Exec time 5: 837.534µs
		Exec time 6: 1.193124ms
		Exec time 7: 1.141676ms
		Exec time 8: 1.064987ms
		Exec time 9: 902.855µs
		Exec time 10: 1.661368ms
		Exec time avg: 1387292ns
	Quicksort:
		Exec time 1: 3.090953ms
		Exec time 2: 3.048369ms
		Exec time 3: 3.008877ms
		Exec time 4: 3.548334ms
		Exec time 5: 3.354392ms
		Exec time 6: 3.471737ms
		Exec time 7: 3.087969ms
		Exec time 8: 3.445661ms
		Exec time 9: 3.063997ms
		Exec time 10: 2.946642ms
		Exec time avg: 3206693ns
	Radix Sort:
		Exec time 1: 22.748223ms
		Exec time 2: 18.393341ms
		Exec time 3: 19.822869ms
		Exec time 4: 23.4449ms
		Exec time 5: 17.518009ms
		Exec time 6: 17.766382ms
		Exec time 7: 22.258671ms
		Exec time 8: 18.47711ms
		Exec time 9: 18.257708ms
		Exec time 10: 16.998299ms
		Exec time avg: 19568551ns
Job: Input: ./input/MergeSortWorstCase_10000.txt Output: ./output/MergeSortWorstCase_10000_p24.txt Procs: 24 Runs: 10
Input file: ./input/MergeSortWorstCase_10000.txt
Output file: ./output/MergeSortWorstCase_10000_p24.txt
Logical CPUs: 48
Max procs: 24
Runs: 10
Problem size: n = 10000
	Bitonic Sort:
		Exec time 1: 19.589218ms
		Exec time 2: 10.698144ms
		Exec time 3: 19.33184ms
		Exec time 4: 14.879545ms
		Exec time 5: 14.948647ms
		Exec time 6: 11.343364ms
		Exec time 7: 12.746317ms
		Exec time 8: 15.386882ms
		Exec time 9: 13.964086ms
		Exec time 10: 17.942182ms
		Exec time avg: 15083022ns
	Mergesort:
		Exec time 1: 913.902µs
		Exec time 2: 773.327µs
		Exec time 3: 2.303503ms
		Exec time 4: 602.066µs
		Exec time 5: 892.901µs
		Exec time 6: 760.407µs
		Exec time 7: 520.747µs
		Exec time 8: 2.169641ms
		Exec time 9: 841.455µs
		Exec time 10: 981.488µs
		Exec time avg: 1075943ns
	Quicksort:
		Exec time 1: 4.403462ms
		Exec time 2: 3.77008ms
		Exec time 3: 6.432807ms
		Exec time 4: 4.196015ms
		Exec time 5: 3.764616ms
		Exec time 6: 3.795687ms
		Exec time 7: 4.448353ms
		Exec time 8: 3.761369ms
		Exec time 9: 6.357706ms
		Exec time 10: 3.82004ms
		Exec time avg: 4475013ns
	Radix Sort:
		Exec time 1: 14.76348ms
		Exec time 2: 14.381461ms
		Exec time 3: 9.047737ms
		Exec time 4: 10.820387ms
		Exec time 5: 8.814283ms
		Exec time 6: 8.837799ms
		Exec time 7: 10.462966ms
		Exec time 8: 8.759362ms
		Exec time 9: 8.726384ms
		Exec time 10: 10.118951ms
		Exec time avg: 10473281ns
Job: Input: ./input/MergeSortWorstCase_10000.txt Output: ./output/MergeSortWorstCase_10000_p48.txt Procs: 48 Runs: 10
Input file: ./input/MergeSortWorstCase_10000.txt
Output file: ./output/MergeSortWorstCase_10000_p48.txt
Logical CPUs: 48
Max procs: 48
Runs: 10
Problem size: n = 10000
	Bitonic Sort:
		Exec time 1: 18.011118ms
		Exec time 2: 17.091272ms
		Exec time 3: 23.293543ms
		Exec time 4: 15.301249ms
		Exec time 5: 18.886379ms
		Exec time 6: 16.813875ms
		Exec time 7: 20.934515ms
		Exec time 8: 18.0161ms
		Exec time 9: 19.791777ms
		Exec time 10: 15.806043ms
		Exec time avg: 18394587ns
	Mergesort:
		Exec time 1: 3.886574ms
		Exec time 2: 1.068474ms
		Exec time 3: 483.819µs
		Exec time 4: 363.266µs
		Exec time 5: 711.548µs
		Exec time 6: 2.52689ms
		Exec time 7: 504.739µs
		Exec time 8: 933.734µs
		Exec time 9: 373.709µs
		Exec time 10: 832.577µs
		Exec time avg: 1168533ns
	Quicksort:
		Exec time 1: 3.530936ms
		Exec time 2: 4.512096ms
		Exec time 3: 5.847893ms
		Exec time 4: 3.810002ms
		Exec time 5: 5.992878ms
		Exec time 6: 3.674648ms
		Exec time 7: 3.676222ms
		Exec time 8: 3.759373ms
		Exec time 9: 3.782672ms
		Exec time 10: 3.6935ms
		Exec time avg: 4228022ns
	Radix Sort:
		Exec time 1: 18.513924ms
		Exec time 2: 21.58235ms
		Exec time 3: 15.055056ms
		Exec time 4: 11.10571ms
		Exec time 5: 24.558055ms
		Exec time 6: 10.560875ms
		Exec time 7: 11.878238ms
		Exec time 8: 18.379183ms
		Exec time 9: 21.211506ms
		Exec time 10: 21.680305ms
		Exec time avg: 17452520ns
Job: Input: ./input/MergeSortWorstCase_1000.txt Output: ./output/MergeSortWorstCase_1000_p1.txt Procs: 1 Runs: 10
Input file: ./input/MergeSortWorstCase_1000.txt
Output file: ./output/MergeSortWorstCase_1000_p1.txt
Logical CPUs: 48
Max procs: 1
Runs: 10
Problem size: n = 1000
	Bitonic Sort:
		Exec time 1: 4.727615ms
		Exec time 2: 3.68072ms
		Exec time 3: 3.435568ms
		Exec time 4: 3.418684ms
		Exec time 5: 3.881743ms
		Exec time 6: 3.676437ms
		Exec time 7: 3.812385ms
		Exec time 8: 4.233274ms
		Exec time 9: 3.805607ms
		Exec time 10: 4.664262ms
		Exec time avg: 3933629ns
	Mergesort:
		Exec time 1: 192.847µs
		Exec time 2: 221.102µs
		Exec time 3: 68.829µs
		Exec time 4: 156.729µs
		Exec time 5: 200.236µs
		Exec time 6: 55.436µs
		Exec time 7: 183.17µs
		Exec time 8: 191.613µs
		Exec time 9: 195.87µs
		Exec time 10: 191.809µs
		Exec time avg: 165764ns
	Quicksort:
		Exec time 1: 448.191µs
		Exec time 2: 622.509µs
		Exec time 3: 528.383µs
		Exec time 4: 418.239µs
		Exec time 5: 578.094µs
		Exec time 6: 315.404µs
		Exec time 7: 821.383µs
		Exec time 8: 381.438µs
		Exec time 9: 444.347µs
		Exec time 10: 597.072µs
		Exec time avg: 515506ns
	Radix Sort:
		Exec time 1: 1.688968ms
		Exec time 2: 1.325698ms
		Exec time 3: 1.278618ms
		Exec time 4: 1.364685ms
		Exec time 5: 1.369119ms
		Exec time 6: 1.987348ms
		Exec time 7: 1.715389ms
		Exec time 8: 1.818312ms
		Exec time 9: 1.912626ms
		Exec time 10: 1.563297ms
		Exec time avg: 1602406ns
Job: Input: ./input/MergeSortWorstCase_1000.txt Output: ./output/MergeSortWorstCase_1000_p24.txt Procs: 24 Runs: 10
Input file: ./input/MergeSortWorstCase_1000.txt
Output file: ./output/MergeSortWorstCase_1000_p24.txt
Logical CPUs: 48
Max procs: 24
Runs: 10
Problem size: n = 1000
	Bitonic Sort:
		Exec time 1: 3.985031ms
		Exec time 2: 3.845729ms
		Exec time 3: 1.93389ms
		Exec time 4: 1.899041ms
		Exec time 5: 1.50679ms
		Exec time 6: 1.420551ms
		Exec time 7: 1.135619ms
		Exec time 8: 1.493388ms
		Exec time 9: 1.358694ms
		Exec time 10: 1.411562ms
		Exec time avg: 1999029ns
	Mergesort:
		Exec time 1: 88.921µs
		Exec time 2: 203.214µs
		Exec time 3: 192.618µs
		Exec time 4: 361.866µs
		Exec time 5: 266.026µs
		Exec time 6: 1.084058ms
		Exec time 7: 106.609µs
		Exec time 8: 202.608µs
		Exec time 9: 181.492µs
		Exec time 10: 179.197µs
		Exec time avg: 286660ns
	Quicksort:
		Exec time 1: 692.897µs
		Exec time 2: 781.43µs
		Exec time 3: 344.698µs
		Exec time 4: 902.096µs
		Exec time 5: 774.72µs
		Exec time 6: 803.476µs
		Exec time 7: 808.827µs
		Exec time 8: 587.485µs
		Exec time 9: 660.148µs
		Exec time 10: 329.012µs
		Exec time avg: 668478ns
	Radix Sort:
		Exec time 1: 1.203794ms
		Exec time 2: 1.243263ms
		Exec time 3: 1.160806ms
		Exec time 4: 1.073447ms
		Exec time 5: 963.473µs
		Exec time 6: 974.463µs
		Exec time 7: 1.581643ms
		Exec time 8: 1.579405ms
		Exec time 9: 1.26709ms
		Exec time 10: 989.35µs
		Exec time avg: 1203673ns
Job: Input: ./input/MergeSortWorstCase_1000.txt Output: ./output/MergeSortWorstCase_1000_p48.txt Procs: 48 Runs: 10
Input file: ./input/MergeSortWorstCase_1000.txt
Output file: ./output/MergeSortWorstCase_1000_p48.txt
Logical CPUs: 48
Max procs: 48
Runs: 10
Problem size: n = 1000
	Bitonic Sort:
		Exec time 1: 3.172914ms
		Exec time 2: 2.404559ms
		Exec time 3: 1.196707ms
		Exec time 4: 1.25638ms
		Exec time 5: 1.267481ms
		Exec time 6: 2.026471ms
		Exec time 7: 1.443564ms
		Exec time 8: 1.632643ms
		Exec time 9: 1.509369ms
		Exec time 10: 2.070442ms
		Exec time avg: 1798053ns
	Mergesort:
		Exec time 1: 209.95µs
		Exec time 2: 194.39µs
		Exec time 3: 191.023µs
		Exec time 4: 129.543µs
		Exec time 5: 252.436µs
		Exec time 6: 1.880286ms
		Exec time 7: 164.922µs
		Exec time 8: 305.915µs
		Exec time 9: 313.401µs
		Exec time 10: 221.933µs
		Exec time avg: 386379ns
	Quicksort:
		Exec time 1: 418.339µs
		Exec time 2: 746.283µs
		Exec time 3: 406.735µs
		Exec time 4: 487.12µs
		Exec time 5: 450.871µs
		Exec time 6: 720.367µs
		Exec time 7: 615.192µs
		Exec time 8: 647.107µs
		Exec time 9: 1.054849ms
		Exec time 10: 482.183µs
		Exec time avg: 602904ns
	Radix Sort:
		Exec time 1: 1.433049ms
		Exec time 2: 1.404374ms
		Exec time 3: 1.175423ms
		Exec time 4: 933.411µs
		Exec time 5: 1.447703ms
		Exec time 6: 1.165059ms
		Exec time 7: 1.152197ms
		Exec time 8: 2.139751ms
		Exec time 9: 1.606419ms
		Exec time 10: 1.309764ms
		Exec time avg: 1376715ns
Job: Input: ./input/MergeSortWorstCase_100.txt Output: ./output/MergeSortWorstCase_100_p1.txt Procs: 1 Runs: 10
Input file: ./input/MergeSortWorstCase_100.txt
Output file: ./output/MergeSortWorstCase_100_p1.txt
Logical CPUs: 48
Max procs: 1
Runs: 10
Problem size: n = 100
	Bitonic Sort:
		Exec time 1: 595.313µs
		Exec time 2: 570.899µs
		Exec time 3: 440.376µs
		Exec time 4: 437.636µs
		Exec time 5: 358.219µs
		Exec time 6: 419.678µs
		Exec time 7: 856.768µs
		Exec time 8: 925.959µs
		Exec time 9: 614.278µs
		Exec time 10: 826.001µs
		Exec time avg: 604512ns
	Mergesort:
		Exec time 1: 20.013µs
		Exec time 2: 109.723µs
		Exec time 3: 19.807µs
		Exec time 4: 5.999µs
		Exec time 5: 47.227µs
		Exec time 6: 40.456µs
		Exec time 7: 42.816µs
		Exec time 8: 41.298µs
		Exec time 9: 49.706µs
		Exec time 10: 24.649µs
		Exec time avg: 40169ns
	Quicksort:
		Exec time 1: 126.764µs
		Exec time 2: 110.514µs
		Exec time 3: 117.269µs
		Exec time 4: 34.77µs
		Exec time 5: 129.138µs
		Exec time 6: 132.23µs
		Exec time 7: 106.836µs
		Exec time 8: 105.259µs
		Exec time 9: 122.12µs
		Exec time 10: 110.63µs
		Exec time avg: 109553ns
	Radix Sort:
		Exec time 1: 291.123µs
		Exec time 2: 270.459µs
		Exec time 3: 304.383µs
		Exec time 4: 368.615µs
		Exec time 5: 305.02µs
		Exec time 6: 310.743µs
		Exec time 7: 310.758µs
		Exec time 8: 170.456µs
		Exec time 9: 340.217µs
		Exec time 10: 112.663µs
		Exec time avg: 278443ns
Job: Input: ./input/MergeSortWorstCase_100.txt Output: ./output/MergeSortWorstCase_100_p24.txt Procs: 24 Runs: 10
Input file: ./input/MergeSortWorstCase_100.txt
Output file: ./output/MergeSortWorstCase_100_p24.txt
Logical CPUs: 48
Max procs: 24
Runs: 10
Problem size: n = 100
	Bitonic Sort:
		Exec time 1: 490.544µs
		Exec time 2: 659.958µs
		Exec time 3: 353.632µs
		Exec time 4: 482.157µs
		Exec time 5: 1.116655ms
		Exec time 6: 317.405µs
		Exec time 7: 514.814µs
		Exec time 8: 364.164µs
		Exec time 9: 1.523897ms
		Exec time 10: 530.345µs
		Exec time avg: 635357ns
	Mergesort:
		Exec time 1: 6.145µs
		Exec time 2: 37.044µs
		Exec time 3: 38.255µs
		Exec time 4: 30.448µs
		Exec time 5: 37.478µs
		Exec time 6: 37.815µs
		Exec time 7: 43.197µs
		Exec time 8: 38.094µs
		Exec time 9: 48.098µs
		Exec time 10: 43.578µs
		Exec time avg: 36015ns
	Quicksort:
		Exec time 1: 121.462µs
		Exec time 2: 108.224µs
		Exec time 3: 126.643µs
		Exec time 4: 123.768µs
		Exec time 5: 112.772µs
		Exec time 6: 61.784µs
		Exec time 7: 126.377µs
		Exec time 8: 120.282µs
		Exec time 9: 58.323µs
		Exec time 10: 128.74µs
		Exec time avg: 108837ns
	Radix Sort:
		Exec time 1: 250.165µs
		Exec time 2: 250.802µs
		Exec time 3: 229.487µs
		Exec time 4: 611.699µs
		Exec time 5: 222.743µs
		Exec time 6: 236.924µs
		Exec time 7: 229.941µs
		Exec time 8: 171.282µs
		Exec time 9: 167.198µs
		Exec time 10: 278.092µs
		Exec time avg: 264833ns
Job: Input: ./input/MergeSortWorstCase_100.txt Output: ./output/MergeSortWorstCase_100_p48.txt Procs: 48 Runs: 10
Input file: ./input/MergeSortWorstCase_100.txt
Output file: ./output/MergeSortWorstCase_100_p48.txt
Logical CPUs: 48
Max procs: 48
Runs: 10
Problem size: n = 100
	Bitonic Sort:
		Exec time 1: 318.166µs
		Exec time 2: 424.245µs
		Exec time 3: 1.31364ms
		Exec time 4: 647.744µs
		Exec time 5: 314.828µs
		Exec time 6: 251.164µs
		Exec time 7: 545.247µs
		Exec time 8: 640.597µs
		Exec time 9: 455.215µs
		Exec time 10: 381.364µs
		Exec time avg: 529221ns
	Mergesort:
		Exec time 1: 19.841µs
		Exec time 2: 37.89µs
		Exec time 3: 37.833µs
		Exec time 4: 37.383µs
		Exec time 5: 20.699µs
		Exec time 6: 36.421µs
		Exec time 7: 46.801µs
		Exec time 8: 36.006µs
		Exec time 9: 51.965µs
		Exec time 10: 36.015µs
		Exec time avg: 36085ns
	Quicksort:
		Exec time 1: 116.929µs
		Exec time 2: 126.125µs
		Exec time 3: 121.051µs
		Exec time 4: 119.267µs
		Exec time 5: 105.962µs
		Exec time 6: 122.091µs
		Exec time 7: 47.009µs
		Exec time 8: 120.22µs
		Exec time 9: 124.018µs
		Exec time 10: 121.589µs
		Exec time avg: 112426ns
	Radix Sort:
		Exec time 1: 236.674µs
		Exec time 2: 241.034µs
		Exec time 3: 244.035µs
		Exec time 4: 224.163µs
		Exec time 5: 181.287µs
		Exec time 6: 417.497µs
		Exec time 7: 253.022µs
		Exec time 8: 204.985µs
		Exec time 9: 255.961µs
		Exec time 10: 211.935µs
		Exec time avg: 247059ns
Job: Input: ./input/NearlySortedInDescendingOrderCase_10000000.txt Output: ./output/NearlySortedInDescendingOrderCase_10000000_p1.txt Procs: 1 Runs: 10
Input file: ./input/NearlySortedInDescendingOrderCase_10000000.txt
Output file: ./output/NearlySortedInDescendingOrderCase_10000000_p1.txt
Logical CPUs: 48
Max procs: 1
Runs: 10
Problem size: n = 10000000
	Bitonic Sort:
		Exec time 1: 4m34.754677529s
		Exec time 2: 4m43.250793111s
		Exec time 3: 4m47.575435798s
		Exec time 4: 4m35.89620446s
		Exec time 5: 4m44.322274067s
		Exec time 6: 4m55.530175716s
		Exec time 7: 4m49.188976564s
		Exec time 8: 4m33.473735156s
		Exec time 9: 4m40.076100959s
		Exec time 10: 4m52.240698989s
		Exec time avg: 283630907234ns
	Mergesort:
		Exec time 1: 1.840778553s
		Exec time 2: 1.710189411s
		Exec time 3: 1.813988937s
		Exec time 4: 1.910858984s
		Exec time 5: 1.744389309s
		Exec time 6: 1.942706532s
		Exec time 7: 1.750102522s
		Exec time 8: 1.896952849s
		Exec time 9: 1.676767279s
		Exec time 10: 1.649710638s
		Exec time avg: 1793644501ns
	Quicksort:
		Exec time 1: 3.327087666s
		Exec time 2: 3.730549565s
		Exec time 3: 3.469807808s
		Exec time 4: 3.749060502s
		Exec time 5: 3.3540002s
		Exec time 6: 3.569769523s
		Exec time 7: 3.359867214s
		Exec time 8: 3.355988477s
		Exec time 9: 3.76693211s
		Exec time 10: 3.709155619s
		Exec time avg: 3539221868ns
	Radix Sort:
		Exec time 1: 1m2.815820002s
		Exec time 2: 1m2.05417831s
		Exec time 3: 58.930345354s
		Exec time 4: 1m12.315062626s
		Exec time 5: 1m7.352505456s
		Exec time 6: 1m13.802889293s
		Exec time 7: 1m14.979036468s
		Exec time 8: 1m8.924226107s
		Exec time 9: 1m18.447851943s
		Exec time 10: 1m16.952778825s
		Exec time avg: 69657469438ns
Job: Input: ./input/NearlySortedInDescendingOrderCase_10000000.txt Output: ./output/NearlySortedInDescendingOrderCase_10000000_p24.txt Procs: 24 Runs: 10
Input file: ./input/NearlySortedInDescendingOrderCase_10000000.txt
Output file: ./output/NearlySortedInDescendingOrderCase_10000000_p24.txt
Logical CPUs: 48
Max procs: 24
Runs: 10
Problem size: n = 10000000
	Bitonic Sort:
		Exec time 1: 34.441928229s
		Exec time 2: 34.724893641s
		Exec time 3: 35.025130881s
		Exec time 4: 35.004383617s
		Exec time 5: 34.934738698s
		Exec time 6: 34.003170352s
		Exec time 7: 35.014175449s
		Exec time 8: 35.966765447s
		Exec time 9: 35.872547315s
		Exec time 10: 35.699510455s
		Exec time avg: 35068724408ns
	Mergesort:
		Exec time 1: 1.343012127s
		Exec time 2: 919.94203ms
		Exec time 3: 711.893215ms
		Exec time 4: 1.37840395s
		Exec time 5: 1.264739034s
		Exec time 6: 724.109519ms
		Exec time 7: 1.39712869s
		Exec time 8: 1.249323362s
		Exec time 9: 733.913137ms
		Exec time 10: 1.409955511s
		Exec time avg: 1113242057ns
	Quicksort:
		Exec time 1: 6.076178422s
		Exec time 2: 6.017394616s
		Exec time 3: 6.085565976s
		Exec time 4: 6.071403623s
		Exec time 5: 6.068249536s
		Exec time 6: 6.003301991s
		Exec time 7: 5.973432715s
		Exec time 8: 6.021009188s
		Exec time 9: 6.005173653s
		Exec time 10: 5.930186747s
		Exec time avg: 6025189646ns
	Radix Sort:
		Exec time 1: 26.777848965s
		Exec time 2: 26.928967516s
		Exec time 3: 26.698942944s
		Exec time 4: 27.459622687s
		Exec time 5: 25.663366206s
		Exec time 6: 25.983236869s
		Exec time 7: 27.244211271s
		Exec time 8: 26.108926013s
		Exec time 9: 26.649792755s
		Exec time 10: 28.037185694s
		Exec time avg: 26755210092ns
Job: Input: ./input/NearlySortedInDescendingOrderCase_10000000.txt Output: ./output/NearlySortedInDescendingOrderCase_10000000_p48.txt Procs: 48 Runs: 10
Input file: ./input/NearlySortedInDescendingOrderCase_10000000.txt
Output file: ./output/NearlySortedInDescendingOrderCase_10000000_p48.txt
Logical CPUs: 48
Max procs: 48
Runs: 10
Problem size: n = 10000000
	Bitonic Sort:
		Exec time 1: 30.26395641s
		Exec time 2: 30.262778459s
		Exec time 3: 30.154582443s
		Exec time 4: 30.514885412s
		Exec time 5: 29.283638382s
		Exec time 6: 29.799196718s
		Exec time 7: 29.553175171s
		Exec time 8: 29.58832381s
		Exec time 9: 29.407729052s
		Exec time 10: 29.534806595s
		Exec time avg: 29836307245ns
	Mergesort:
		Exec time 1: 1.407672133s
		Exec time 2: 1.32371622s
		Exec time 3: 1.222163702s
		Exec time 4: 715.353729ms
		Exec time 5: 1.478854985s
		Exec time 6: 1.352690927s
		Exec time 7: 1.264075269s
		Exec time 8: 727.322679ms
		Exec time 9: 1.416583606s
		Exec time 10: 1.338752515s
		Exec time avg: 1224718576ns
	Quicksort:
		Exec time 1: 5.853725813s
		Exec time 2: 5.942054075s
		Exec time 3: 5.894612032s
		Exec time 4: 5.851845815s
		Exec time 5: 5.939587521s
		Exec time 6: 5.870165423s
		Exec time 7: 5.911407811s
		Exec time 8: 5.798156562s
		Exec time 9: 5.867913435s
		Exec time 10: 5.938899156s
		Exec time avg: 5886836764ns
	Radix Sort:
		Exec time 1: 32.304261572s
		Exec time 2: 32.402644013s
		Exec time 3: 32.552769577s
		Exec time 4: 33.038198086s
		Exec time 5: 32.509587675s
		Exec time 6: 32.73149558s
		Exec time 7: 33.158104664s
		Exec time 8: 33.08229651s
		Exec time 9: 32.789893898s
		Exec time 10: 32.781507705s
		Exec time avg: 32735075928ns
Job: Input: ./input/NearlySortedInDescendingOrderCase_1000000.txt Output: ./output/NearlySortedInDescendingOrderCase_1000000_p1.txt Procs: 1 Runs: 10
Input file: ./input/NearlySortedInDescendingOrderCase_1000000.txt
Output file: ./output/NearlySortedInDescendingOrderCase_1000000_p1.txt
Logical CPUs: 48
Max procs: 1
Runs: 10
Problem size: n = 1000000
	Bitonic Sort:
		Exec time 1: 11.144711841s
		Exec time 2: 11.584643273s
		Exec time 3: 11.277139124s
		Exec time 4: 11.822467006s
		Exec time 5: 11.938995093s
		Exec time 6: 11.605636553s
		Exec time 7: 12.609572783s
		Exec time 8: 13.187086947s
		Exec time 9: 12.824318955s
		Exec time 10: 13.065642208s
		Exec time avg: 12106021378ns
	Mergesort:
		Exec time 1: 187.918199ms
		Exec time 2: 182.286439ms
		Exec time 3: 164.732154ms
		Exec time 4: 157.506123ms
		Exec time 5: 166.238027ms
		Exec time 6: 176.11681ms
		Exec time 7: 164.479963ms
		Exec time 8: 163.326233ms
		Exec time 9: 167.642393ms
		Exec time 10: 146.364045ms
		Exec time avg: 167661038ns
	Quicksort:
		Exec time 1: 307.449642ms
		Exec time 2: 322.236702ms
		Exec time 3: 306.562468ms
		Exec time 4: 305.17253ms
		Exec time 5: 314.829716ms
		Exec time 6: 307.223572ms
		Exec time 7: 315.687193ms
		Exec time 8: 308.968312ms
		Exec time 9: 306.454414ms
		Exec time 10: 305.721343ms
		Exec time avg: 310030589ns
	Radix Sort:
		Exec time 1: 5.357543285s
		Exec time 2: 6.163467223s
		Exec time 3: 5.225943614s
		Exec time 4: 6.620260298s
		Exec time 5: 6.381437291s
		Exec time 6: 5.566523946s
		Exec time 7: 5.772847462s
		Exec time 8: 5.068845442s
		Exec time 9: 5.611294356s
		Exec time 10: 6.166504608s
		Exec time avg: 5793466752ns
Job: Input: ./input/NearlySortedInDescendingOrderCase_1000000.txt Output: ./output/NearlySortedInDescendingOrderCase_1000000_p24.txt Procs: 24 Runs: 10
Input file: ./input/NearlySortedInDescendingOrderCase_1000000.txt
Output file: ./output/NearlySortedInDescendingOrderCase_1000000_p24.txt
Logical CPUs: 48
Max procs: 24
Runs: 10
Problem size: n = 1000000
	Bitonic Sort:
		Exec time 1: 1.824729104s
		Exec time 2: 1.678858498s
		Exec time 3: 1.639845331s
		Exec time 4: 1.766270941s
		Exec time 5: 1.754640203s
		Exec time 6: 1.387889398s
		Exec time 7: 1.656165065s
		Exec time 8: 1.820364667s
		Exec time 9: 1.716588785s
		Exec time 10: 1.638049307s
		Exec time avg: 1688340129ns
	Mergesort:
		Exec time 1: 65.032111ms
		Exec time 2: 101.455375ms
		Exec time 3: 56.924968ms
		Exec time 4: 110.440268ms
		Exec time 5: 78.93729ms
		Exec time 6: 111.423593ms
		Exec time 7: 70.453149ms
		Exec time 8: 98.172497ms
		Exec time 9: 148.808676ms
		Exec time 10: 77.001102ms
		Exec time avg: 91864902ns
	Quicksort:
		Exec time 1: 495.97506ms
		Exec time 2: 480.917892ms
		Exec time 3: 498.040051ms
		Exec time 4: 486.663164ms
		Exec time 5: 497.033243ms
		Exec time 6: 496.595532ms
		Exec time 7: 542.953537ms
		Exec time 8: 531.656431ms
		Exec time 9: 539.454636ms
		Exec time 10: 553.569851ms
		Exec time avg: 512285939ns
	Radix Sort:
		Exec time 1: 2.42016079s
		Exec time 2: 2.254029083s
		Exec time 3: 2.108090893s
		Exec time 4: 2.036966789s
		Exec time 5: 1.797032783s
		Exec time 6: 1.771462715s
		Exec time 7: 1.883923504s
		Exec time 8: 1.571309996s
		Exec time 9: 1.62600582s
		Exec time 10: 1.597400052s
		Exec time avg: 1906638242ns
Job: Input: ./input/NearlySortedInDescendingOrderCase_1000000.txt Output: ./output/NearlySortedInDescendingOrderCase_1000000_p48.txt Procs: 48 Runs: 10
Input file: ./input/NearlySortedInDescendingOrderCase_1000000.txt
Output file: ./output/NearlySortedInDescendingOrderCase_1000000_p48.txt
Logical CPUs: 48
Max procs: 48
Runs: 10
Problem size: n = 1000000
	Bitonic Sort:
		Exec time 1: 1.469916343s
		Exec time 2: 1.394037203s
		Exec time 3: 1.442808582s
		Exec time 4: 1.365096803s
		Exec time 5: 1.537571519s
		Exec time 6: 1.440388145s
		Exec time 7: 1.475961043s
		Exec time 8: 1.363457683s
		Exec time 9: 1.453018165s
		Exec time 10: 1.425744717s
		Exec time avg: 1436800020ns
	Mergesort:
		Exec time 1: 142.644234ms
		Exec time 2: 75.912126ms
		Exec time 3: 79.748424ms
		Exec time 4: 86.112176ms
		Exec time 5: 142.560327ms
		Exec time 6: 77.418011ms
		Exec time 7: 89.612304ms
		Exec time 8: 116.397119ms
		Exec time 9: 82.878078ms
		Exec time 10: 81.417461ms
		Exec time avg: 97470026ns
	Quicksort:
		Exec time 1: 569.60092ms
		Exec time 2: 591.177689ms
		Exec time 3: 584.753379ms
		Exec time 4: 584.414765ms
		Exec time 5: 580.665563ms
		Exec time 6: 576.503064ms
		Exec time 7: 583.092216ms
		Exec time 8: 580.707207ms
		Exec time 9: 553.425407ms
		Exec time 10: 564.958728ms
		Exec time avg: 576929893ns
	Radix Sort:
		Exec time 1: 2.743401177s
		Exec time 2: 2.76387844s
		Exec time 3: 2.727269675s
		Exec time 4: 2.757882459s
		Exec time 5: 2.760191344s
		Exec time 6: 2.713037027s
		Exec time 7: 2.650065111s
		Exec time 8: 2.682255773s
		Exec time 9: 2.708897425s
		Exec time 10: 2.767025343s
		Exec time avg: 2727390377ns
Job: Input: ./input/NearlySortedInDescendingOrderCase_100000.txt Output: ./output/NearlySortedInDescendingOrderCase_100000_p1.txt Procs: 1 Runs: 10
Input file: ./input/NearlySortedInDescendingOrderCase_100000.txt
Output file: ./output/NearlySortedInDescendingOrderCase_100000_p1.txt
Logical CPUs: 48
Max procs: 1
Runs: 10
Problem size: n = 100000
	Bitonic Sort:
		Exec time 1: 1.023808638s
		Exec time 2: 939.561666ms
		Exec time 3: 962.443752ms
		Exec time 4: 963.888596ms
		Exec time 5: 1.037558017s
		Exec time 6: 961.615958ms
		Exec time 7: 949.226623ms
		Exec time 8: 1.013620769s
		Exec time 9: 1.019474782s
		Exec time 10: 938.75354ms
		Exec time avg: 980995234ns
	Mergesort:
		Exec time 1: 17.234426ms
		Exec time 2: 15.862687ms
		Exec time 3: 13.85246ms
		Exec time 4: 17.346338ms
		Exec time 5: 12.226354ms
		Exec time 6: 11.463479ms
		Exec time 7: 11.418846ms
		Exec time 8: 11.28915ms
		Exec time 9: 12.063115ms
		Exec time 10: 11.389837ms
		Exec time avg: 13414669ns
	Quicksort:
		Exec time 1: 29.243816ms
		Exec time 2: 30.099001ms
		Exec time 3: 28.776075ms
		Exec time 4: 29.007522ms
		Exec time 5: 28.605779ms
		Exec time 6: 29.460917ms
		Exec time 7: 29.180365ms
		Exec time 8: 29.061168ms
		Exec time 9: 28.266147ms
		Exec time 10: 29.249918ms
		Exec time avg: 29095070ns
	Radix Sort:
		Exec time 1: 273.662686ms
		Exec time 2: 343.736855ms
		Exec time 3: 266.366109ms
		Exec time 4: 366.603473ms
		Exec time 5: 280.006184ms
		Exec time 6: 331.002872ms
		Exec time 7: 272.334647ms
		Exec time 8: 290.034869ms
		Exec time 9: 294.520785ms
		Exec time 10: 277.036011ms
		Exec time avg: 299530449ns
Job: Input: ./input/NearlySortedInDescendingOrderCase_100000.txt Output: ./output/NearlySortedInDescendingOrderCase_100000_p24.txt Procs: 24 Runs: 10
Input file: ./input/NearlySortedInDescendingOrderCase_100000.txt
Output file: ./output/NearlySortedInDescendingOrderCase_100000_p24.txt
Logical CPUs: 48
Max procs: 24
Runs: 10
Problem size: n = 100000
	Bitonic Sort:
		Exec time 1: 166.767183ms
		Exec time 2: 173.756311ms
		Exec time 3: 152.998333ms
		Exec time 4: 151.1542ms
		Exec time 5: 150.912784ms
		Exec time 6: 152.327006ms
		Exec time 7: 125.444836ms
		Exec time 8: 126.635771ms
		Exec time 9: 108.287836ms
		Exec time 10: 126.844332ms
		Exec time avg: 143512859ns
	Mergesort:
		Exec time 1: 8.679664ms
		Exec time 2: 2.590548ms
		Exec time 3: 10.175092ms
		Exec time 4: 9.50738ms
		Exec time 5: 9.218836ms
		Exec time 6: 4.665236ms
		Exec time 7: 2.935744ms
		Exec time 8: 22.170873ms
		Exec time 9: 11.321925ms
		Exec time 10: 18.425204ms
		Exec time avg: 9969050ns
	Quicksort:
		Exec time 1: 55.276906ms
		Exec time 2: 61.98121ms
		Exec time 3: 53.178737ms
		Exec time 4: 71.108247ms
		Exec time 5: 42.387062ms
		Exec time 6: 37.887408ms
		Exec time 7: 52.023695ms
		Exec time 8: 52.833573ms
		Exec time 9: 51.927973ms
		Exec time 10: 52.556391ms
		Exec time avg: 53116120ns
	Radix Sort:
		Exec time 1: 144.024956ms
		Exec time 2: 151.397309ms
		Exec time 3: 117.432807ms
		Exec time 4: 148.134982ms
		Exec time 5: 164.079781ms
		Exec time 6: 109.390547ms
		Exec time 7: 109.113274ms
		Exec time 8: 108.348028ms
		Exec time 9: 108.83602ms
		Exec time 10: 107.422806ms
		Exec time avg: 126818051ns
Job: Input: ./input/NearlySortedInDescendingOrderCase_100000.txt Output: ./output/NearlySortedInDescendingOrderCase_100000_p48.txt Procs: 48 Runs: 10
Input file: ./input/NearlySortedInDescendingOrderCase_100000.txt
Output file: ./output/NearlySortedInDescendingOrderCase_100000_p48.txt
Logical CPUs: 48
Max procs: 48
Runs: 10
Problem size: n = 100000
	Bitonic Sort:
		Exec time 1: 162.497561ms
		Exec time 2: 147.156489ms
		Exec time 3: 141.49514ms
		Exec time 4: 142.377169ms
		Exec time 5: 144.866975ms
		Exec time 6: 138.833315ms
		Exec time 7: 160.396364ms
		Exec time 8: 160.069931ms
		Exec time 9: 149.453176ms
		Exec time 10: 148.720448ms
		Exec time avg: 149586656ns
	Mergesort:
		Exec time 1: 3.015485ms
		Exec time 2: 19.099169ms
		Exec time 3: 12.503889ms
		Exec time 4: 11.839501ms
		Exec time 5: 3.373655ms
		Exec time 6: 17.834866ms
		Exec time 7: 9.69684ms
		Exec time 8: 3.111239ms
		Exec time 9: 14.266001ms
		Exec time 10: 4.2349ms
		Exec time avg: 9897554ns
	Quicksort:
		Exec time 1: 54.376989ms
		Exec time 2: 59.040631ms
		Exec time 3: 58.934277ms
		Exec time 4: 58.308774ms
		Exec time 5: 58.099756ms
		Exec time 6: 35.011522ms
		Exec time 7: 60.10548ms
		Exec time 8: 35.611266ms
		Exec time 9: 35.541517ms
		Exec time 10: 61.411592ms
		Exec time avg: 51644180ns
	Radix Sort:
		Exec time 1: 217.162388ms
		Exec time 2: 208.28382ms
		Exec time 3: 222.217973ms
		Exec time 4: 235.911366ms
		Exec time 5: 206.958939ms
		Exec time 6: 224.400307ms
		Exec time 7: 217.427897ms
		Exec time 8: 229.990386ms
		Exec time 9: 230.406701ms
		Exec time 10: 214.132969ms
		Exec time avg: 220689274ns
Job: Input: ./input/NearlySortedInDescendingOrderCase_10000.txt Output: ./output/NearlySortedInDescendingOrderCase_10000_p1.txt Procs: 1 Runs: 10
Input file: ./input/NearlySortedInDescendingOrderCase_10000.txt
Output file: ./output/NearlySortedInDescendingOrderCase_10000_p1.txt
Logical CPUs: 48
Max procs: 1
Runs: 10
Problem size: n = 10000
	Bitonic Sort:
		Exec time 1: 86.771295ms
		Exec time 2: 82.84125ms
		Exec time 3: 82.434725ms
		Exec time 4: 82.633586ms
		Exec time 5: 84.679807ms
		Exec time 6: 82.651365ms
		Exec time 7: 81.251298ms
		Exec time 8: 92.785651ms
		Exec time 9: 88.997949ms
		Exec time 10: 83.59127ms
		Exec time avg: 84863819ns
	Mergesort:
		Exec time 1: 1.270271ms
		Exec time 2: 2.059064ms
		Exec time 3: 853.488µs
		Exec time 4: 1.12393ms
		Exec time 5: 1.323695ms
		Exec time 6: 2.571977ms
		Exec time 7: 744.725µs
		Exec time 8: 858.082µs
		Exec time 9: 1.253149ms
		Exec time 10: 1.32934ms
		Exec time avg: 1338772ns
	Quicksort:
		Exec time 1: 3.025969ms
		Exec time 2: 3.184692ms
		Exec time 3: 2.805784ms
		Exec time 4: 2.921138ms
		Exec time 5: 3.109839ms
		Exec time 6: 2.932284ms
		Exec time 7: 2.878098ms
		Exec time 8: 2.966824ms
		Exec time 9: 3.215268ms
		Exec time 10: 3.236629ms
		Exec time avg: 3027652ns
	Radix Sort:
		Exec time 1: 16.85658ms
		Exec time 2: 17.161742ms
		Exec time 3: 19.947588ms
		Exec time 4: 16.57472ms
		Exec time 5: 16.098103ms
		Exec time 6: 20.396035ms
		Exec time 7: 15.930744ms
		Exec time 8: 15.223343ms
		Exec time 9: 15.728606ms
		Exec time 10: 21.928213ms
		Exec time avg: 17584567ns
Job: Input: ./input/NearlySortedInDescendingOrderCase_10000.txt Output: ./output/NearlySortedInDescendingOrderCase_10000_p24.txt Procs: 24 Runs: 10
Input file: ./input/NearlySortedInDescendingOrderCase_10000.txt
Output file: ./output/NearlySortedInDescendingOrderCase_10000_p24.txt
Logical CPUs: 48
Max procs: 24
Runs: 10
Problem size: n = 10000
	Bitonic Sort:
		Exec time 1: 20.497327ms
		Exec time 2: 14.410699ms
		Exec time 3: 15.739363ms
		Exec time 4: 10.672585ms
		Exec time 5: 16.064062ms
		Exec time 6: 11.144966ms
		Exec time 7: 14.011095ms
		Exec time 8: 10.90051ms
		Exec time 9: 13.190072ms
		Exec time 10: 11.335371ms
		Exec time avg: 13796605ns
	Mergesort:
		Exec time 1: 2.165609ms
		Exec time 2: 642.429µs
		Exec time 3: 685.518µs
		Exec time 4: 941.547µs
		Exec time 5: 1.062457ms
		Exec time 6: 2.062011ms
		Exec time 7: 582.251µs
		Exec time 8: 652.956µs
		Exec time 9: 537.508µs
		Exec time 10: 795.213µs
		Exec time avg: 1012749ns
	Quicksort:
		Exec time 1: 3.23165ms
		Exec time 2: 3.362563ms
		Exec time 3: 4.365803ms
		Exec time 4: 4.194603ms
		Exec time 5: 3.833966ms
		Exec time 6: 3.5883ms
		Exec time 7: 3.814013ms
		Exec time 8: 3.802113ms
		Exec time 9: 6.27684ms
		Exec time 10: 3.743198ms
		Exec time avg: 4021304ns
	Radix Sort:
		Exec time 1: 8.631966ms
		Exec time 2: 11.135064ms
		Exec time 3: 8.543195ms
		Exec time 4: 8.928928ms
		Exec time 5: 10.407581ms
		Exec time 6: 8.748984ms
		Exec time 7: 10.26666ms
		Exec time 8: 10.232477ms
		Exec time 9: 10.439089ms
		Exec time 10: 9.326678ms
		Exec time avg: 9666062ns
Job: Input: ./input/NearlySortedInDescendingOrderCase_10000.txt Output: ./output/NearlySortedInDescendingOrderCase_10000_p48.txt Procs: 48 Runs: 10
Input file: ./input/NearlySortedInDescendingOrderCase_10000.txt
Output file: ./output/NearlySortedInDescendingOrderCase_10000_p48.txt
Logical CPUs: 48
Max procs: 48
Runs: 10
Problem size: n = 10000
	Bitonic Sort:
		Exec time 1: 19.283071ms
		Exec time 2: 24.442844ms
		Exec time 3: 21.59486ms
		Exec time 4: 16.6701ms
		Exec time 5: 21.202129ms
		Exec time 6: 16.487239ms
		Exec time 7: 20.34954ms
		Exec time 8: 15.809849ms
		Exec time 9: 21.165026ms
		Exec time 10: 16.199296ms
		Exec time avg: 19320395ns
	Mergesort:
		Exec time 1: 4.054289ms
		Exec time 2: 879.096µs
		Exec time 3: 769.195µs
		Exec time 4: 1.207852ms
		Exec time 5: 1.224809ms
		Exec time 6: 3.821397ms
		Exec time 7: 614.241µs
		Exec time 8: 543.862µs
		Exec time 9: 774.799µs
		Exec time 10: 545.219µs
		Exec time avg: 1443475ns
	Quicksort:
		Exec time 1: 4.88039ms
		Exec time 2: 3.727564ms
		Exec time 3: 6.096226ms
		Exec time 4: 3.830469ms
		Exec time 5: 3.690899ms
		Exec time 6: 3.721709ms
		Exec time 7: 6.25422ms
		Exec time 8: 3.707112ms
		Exec time 9: 4.225582ms
		Exec time 10: 3.704955ms
		Exec time avg: 4383912ns
	Radix Sort:
		Exec time 1: 11.849935ms
		Exec time 2: 11.743993ms
		Exec time 3: 16.753496ms
		Exec time 4: 13.054335ms
		Exec time 5: 17.35504ms
		Exec time 6: 13.449449ms
		Exec time 7: 13.040306ms
		Exec time 8: 14.433143ms
		Exec time 9: 15.090847ms
		Exec time 10: 23.308368ms
		Exec time avg: 15007891ns
Job: Input: ./input/NearlySortedInDescendingOrderCase_1000.txt Output: ./output/NearlySortedInDescendingOrderCase_1000_p1.txt Procs: 1 Runs: 10
Input file: ./input/NearlySortedInDescendingOrderCase_1000.txt
Output file: ./output/NearlySortedInDescendingOrderCase_1000_p1.txt
Logical CPUs: 48
Max procs: 1
Runs: 10
Problem size: n = 1000
	Bitonic Sort:
		Exec time 1: 4.132282ms
		Exec time 2: 4.573103ms
		Exec time 3: 4.544633ms
		Exec time 4: 4.090494ms
		Exec time 5: 3.406405ms
		Exec time 6: 4.045244ms
		Exec time 7: 3.369848ms
		Exec time 8: 3.435609ms
		Exec time 9: 3.663876ms
		Exec time 10: 3.311995ms
		Exec time avg: 3857348ns
	Mergesort:
		Exec time 1: 220.126µs
		Exec time 2: 174.933µs
		Exec time 3: 214.47µs
		Exec time 4: 422.934µs
		Exec time 5: 80.918µs
		Exec time 6: 71.849µs
		Exec time 7: 220.563µs
		Exec time 8: 227.988µs
		Exec time 9: 83.601µs
		Exec time 10: 60.916µs
		Exec time avg: 177829ns
	Quicksort:
		Exec time 1: 855.842µs
		Exec time 2: 717.806µs
		Exec time 3: 388.227µs
		Exec time 4: 300.344µs
		Exec time 5: 282.866µs
		Exec time 6: 511.741µs
		Exec time 7: 477.433µs
		Exec time 8: 834.6µs
		Exec time 9: 307.989µs
		Exec time 10: 443.451µs
		Exec time avg: 512029ns
	Radix Sort:
		Exec time 1: 1.43913ms
		Exec time 2: 1.472113ms
		Exec time 3: 1.201317ms
		Exec time 4: 1.778509ms
		Exec time 5: 1.31972ms
		Exec time 6: 1.770652ms
		Exec time 7: 2.458905ms
		Exec time 8: 1.138405ms
		Exec time 9: 2.024019ms
		Exec time 10: 3.070929ms
		Exec time avg: 1767369ns
Job: Input: ./input/NearlySortedInDescendingOrderCase_1000.txt Output: ./output/NearlySortedInDescendingOrderCase_1000_p24.txt Procs: 24 Runs: 10
Input file: ./input/NearlySortedInDescendingOrderCase_1000.txt
Output file: ./output/NearlySortedInDescendingOrderCase_1000_p24.txt
Logical CPUs: 48
Max procs: 24
Runs: 10
Problem size: n = 1000
	Bitonic Sort:
		Exec time 1: 2.346995ms
		Exec time 2: 1.812571ms
		Exec time 3: 1.81865ms
		Exec time 4: 1.753795ms
		Exec time 5: 1.408088ms
		Exec time 6: 1.559394ms
		Exec time 7: 1.111197ms
		Exec time 8: 1.505067ms
		Exec time 9: 1.552546ms
		Exec time 10: 1.544311ms
		Exec time avg: 1641261ns
	Mergesort:
		Exec time 1: 109.931µs
		Exec time 2: 237.89µs
		Exec time 3: 395.878µs
		Exec time 4: 766.167µs
		Exec time 5: 181.458µs
		Exec time 6: 68.514µs
		Exec time 7: 214.897µs
		Exec time 8: 1.281335ms
		Exec time 9: 233.24µs
		Exec time 10: 202.058µs
		Exec time avg: 369136ns
	Quicksort:
		Exec time 1: 805.271µs
		Exec time 2: 702.529µs
		Exec time 3: 818.948µs
		Exec time 4: 478.938µs
		Exec time 5: 352.827µs
		Exec time 6: 847.81µs
		Exec time 7: 602.253µs
		Exec time 8: 556.363µs
		Exec time 9: 331.602µs
		Exec time 10: 302.607µs
		Exec time avg: 579914ns
	Radix Sort:
		Exec time 1: 1.335774ms
		Exec time 2: 1.366812ms
		Exec time 3: 1.088729ms
		Exec time 4: 1.398639ms
		Exec time 5: 1.448648ms
		Exec time 6: 1.435497ms
		Exec time 7: 1.221756ms
		Exec time 8: 1.286235ms
		Exec time 9: 1.258815ms
		Exec time 10: 1.981107ms
		Exec time avg: 1382201ns
Job: Input: ./input/NearlySortedInDescendingOrderCase_1000.txt Output: ./output/NearlySortedInDescendingOrderCase_1000_p48.txt Procs: 48 Runs: 10
Input file: ./input/NearlySortedInDescendingOrderCase_1000.txt
Output file: ./output/NearlySortedInDescendingOrderCase_1000_p48.txt
Logical CPUs: 48
Max procs: 48
Runs: 10
Problem size: n = 1000
	Bitonic Sort:
		Exec time 1: 2.678617ms
		Exec time 2: 1.643505ms
		Exec time 3: 1.094777ms
		Exec time 4: 1.671279ms
		Exec time 5: 1.408767ms
		Exec time 6: 1.585057ms
		Exec time 7: 1.605973ms
		Exec time 8: 1.102037ms
		Exec time 9: 1.725929ms
		Exec time 10: 1.377416ms
		Exec time avg: 1589335ns
	Mergesort:
		Exec time 1: 248.743µs
		Exec time 2: 472.681µs
		Exec time 3: 244.971µs
		Exec time 4: 172.924µs
		Exec time 5: 236.814µs
		Exec time 6: 250.29µs
		Exec time 7: 1.2102ms
		Exec time 8: 239.229µs
		Exec time 9: 92.726µs
		Exec time 10: 97.546µs
		Exec time avg: 326612ns
	Quicksort:
		Exec time 1: 347.866µs
		Exec time 2: 364.032µs
		Exec time 3: 614.73µs
		Exec time 4: 631.992µs
		Exec time 5: 556.107µs
		Exec time 6: 370.058µs
		Exec time 7: 690.336µs
		Exec time 8: 695.959µs
		Exec time 9: 766.739µs
		Exec time 10: 591.962µs
		Exec time avg: 562978ns
	Radix Sort:
		Exec time 1: 1.021185ms
		Exec time 2: 1.137339ms
		Exec time 3: 1.188379ms
		Exec time 4: 1.377086ms
		Exec time 5: 1.183772ms
		Exec time 6: 980.552µs
		Exec time 7: 936.393µs
		Exec time 8: 1.461309ms
		Exec time 9: 1.917406ms
		Exec time 10: 801.107µs
		Exec time avg: 1200452ns
Job: Input: ./input/NearlySortedInDescendingOrderCase_100.txt Output: ./output/NearlySortedInDescendingOrderCase_100_p1.txt Procs: 1 Runs: 10
Input file: ./input/NearlySortedInDescendingOrderCase_100.txt
Output file: ./output/NearlySortedInDescendingOrderCase_100_p1.txt
Logical CPUs: 48
Max procs: 1
Runs: 10
Problem size: n = 100
	Bitonic Sort:
		Exec time 1: 817.824µs
		Exec time 2: 950.293µs
		Exec time 3: 496.455µs
		Exec time 4: 318.459µs
		Exec time 5: 551.726µs
		Exec time 6: 554.636µs
		Exec time 7: 596.024µs
		Exec time 8: 326.499µs
		Exec time 9: 445.059µs
		Exec time 10: 427.985µs
		Exec time avg: 548496ns
	Mergesort:
		Exec time 1: 23.342µs
		Exec time 2: 54.498µs
		Exec time 3: 23.969µs
		Exec time 4: 44.309µs
		Exec time 5: 30.416µs
		Exec time 6: 24.914µs
		Exec time 7: 25.514µs
		Exec time 8: 20.318µs
		Exec time 9: 52.598µs
		Exec time 10: 23.554µs
		Exec time avg: 32343ns
	Quicksort:
		Exec time 1: 105.474µs
		Exec time 2: 110.91µs
		Exec time 3: 100.632µs
		Exec time 4: 101.472µs
		Exec time 5: 96.721µs
		Exec time 6: 107.089µs
		Exec time 7: 46.5µs
		Exec time 8: 110.222µs
		Exec time 9: 103.451µs
		Exec time 10: 46.158µs
		Exec time avg: 92862ns
	Radix Sort:
		Exec time 1: 170.331µs
		Exec time 2: 305.112µs
		Exec time 3: 315.583µs
		Exec time 4: 328.511µs
		Exec time 5: 304.941µs
		Exec time 6: 116.2µs
		Exec time 7: 283.81µs
		Exec time 8: 471.053µs
		Exec time 9: 310.6µs
		Exec time 10: 256.761µs
		Exec time avg: 286290ns
Job: Input: ./input/NearlySortedInDescendingOrderCase_100.txt Output: ./output/NearlySortedInDescendingOrderCase_100_p24.txt Procs: 24 Runs: 10
Input file: ./input/NearlySortedInDescendingOrderCase_100.txt
Output file: ./output/NearlySortedInDescendingOrderCase_100_p24.txt
Logical CPUs: 48
Max procs: 24
Runs: 10
Problem size: n = 100
	Bitonic Sort:
		Exec time 1: 589.26µs
		Exec time 2: 1.083878ms
		Exec time 3: 614.004µs
		Exec time 4: 598.579µs
		Exec time 5: 589.794µs
		Exec time 6: 549.935µs
		Exec time 7: 422.99µs
		Exec time 8: 464.573µs
		Exec time 9: 616.203µs
		Exec time 10: 335.5µs
		Exec time avg: 586471ns
	Mergesort:
		Exec time 1: 29.779µs
		Exec time 2: 58.749µs
		Exec time 3: 53.769µs
		Exec time 4: 13.373µs
		Exec time 5: 42.81µs
		Exec time 6: 25.113µs
		Exec time 7: 42.377µs
		Exec time 8: 43.45µs
		Exec time 9: 30.048µs
		Exec time 10: 43.066µs
		Exec time avg: 38253ns
	Quicksort:
		Exec time 1: 122.457µs
		Exec time 2: 317.155µs
		Exec time 3: 180.054µs
		Exec time 4: 117.946µs
		Exec time 5: 125.566µs
		Exec time 6: 116.361µs
		Exec time 7: 91.214µs
		Exec time 8: 69.155µs
		Exec time 9: 106.477µs
		Exec time 10: 153.504µs
		Exec time avg: 139988ns
	Radix Sort:
		Exec time 1: 236.156µs
		Exec time 2: 258.865µs
		Exec time 3: 234.609µs
		Exec time 4: 308.271µs
		Exec time 5: 119.907µs
[...]
		Exec time 5: 1.677460334s
		Exec time 6: 1.719862881s
		Exec time 7: 1.442978763s
		Exec time 8: 1.644855386s
		Exec time 9: 1.806192413s
		Exec time 10: 2.245282863s
		Exec time avg: 1821350300ns
Job: Input: ./input/SortedInDescendingOrderCase_1000000.txt Output: ./output/SortedInDescendingOrderCase_1000000_p48.txt Procs: 48 Runs: 10
Input file: ./input/SortedInDescendingOrderCase_1000000.txt
Output file: ./output/SortedInDescendingOrderCase_1000000_p48.txt
Logical CPUs: 48
Max procs: 48
Runs: 10
Problem size: n = 1000000
	Bitonic Sort:
		Exec time 1: 1.49926262s
		Exec time 2: 1.459354438s
		Exec time 3: 1.397020442s
		Exec time 4: 1.433072971s
		Exec time 5: 1.400345364s
		Exec time 6: 1.436786838s
		Exec time 7: 1.445148847s
		Exec time 8: 1.389258023s
		Exec time 9: 1.43295527s
		Exec time 10: 1.383013014s
		Exec time avg: 1427621782ns
	Mergesort:
		Exec time 1: 73.786418ms
		Exec time 2: 81.211594ms
		Exec time 3: 79.263495ms
		Exec time 4: 130.443438ms
		Exec time 5: 86.236581ms
		Exec time 6: 108.350268ms
		Exec time 7: 79.437036ms
		Exec time 8: 77.885367ms
		Exec time 9: 110.994945ms
		Exec time 10: 78.770356ms
		Exec time avg: 90637949ns
	Quicksort:
		Exec time 1: 591.853891ms
		Exec time 2: 581.97629ms
		Exec time 3: 564.516894ms
		Exec time 4: 578.896235ms
		Exec time 5: 585.02206ms
		Exec time 6: 588.278926ms
		Exec time 7: 579.141856ms
		Exec time 8: 582.027671ms
		Exec time 9: 583.334473ms
		Exec time 10: 590.283138ms
		Exec time avg: 582533143ns
	Radix Sort:
		Exec time 1: 2.786990164s
		Exec time 2: 2.762014594s
		Exec time 3: 2.773257466s
		Exec time 4: 2.752376902s
		Exec time 5: 2.758052154s
		Exec time 6: 2.726352155s
		Exec time 7: 2.751750327s
		Exec time 8: 2.768524866s
		Exec time 9: 2.777199688s
		Exec time 10: 2.732983674s
		Exec time avg: 2758950199ns
Job: Input: ./input/SortedInDescendingOrderCase_100000.txt Output: ./output/SortedInDescendingOrderCase_100000_p1.txt Procs: 1 Runs: 10
Input file: ./input/SortedInDescendingOrderCase_100000.txt
Output file: ./output/SortedInDescendingOrderCase_100000_p1.txt
Logical CPUs: 48
Max procs: 1
Runs: 10
Problem size: n = 100000
	Bitonic Sort:
		Exec time 1: 959.250462ms
		Exec time 2: 1.035658267s
		Exec time 3: 975.868426ms
		Exec time 4: 985.891216ms
		Exec time 5: 1.04103474s
		Exec time 6: 1.046317163s
		Exec time 7: 981.971588ms
		Exec time 8: 909.375488ms
		Exec time 9: 956.38487ms
		Exec time 10: 988.666529ms
		Exec time avg: 988041874ns
	Mergesort:
		Exec time 1: 10.163792ms
		Exec time 2: 10.847088ms
		Exec time 3: 11.997355ms
		Exec time 4: 10.277303ms
		Exec time 5: 11.721463ms
		Exec time 6: 10.654871ms
		Exec time 7: 10.11927ms
		Exec time 8: 9.152991ms
		Exec time 9: 10.019125ms
		Exec time 10: 9.892668ms
		Exec time avg: 10484592ns
	Quicksort:
		Exec time 1: 27.55955ms
		Exec time 2: 26.843767ms
		Exec time 3: 27.37965ms
		Exec time 4: 26.811553ms
		Exec time 5: 27.396678ms
		Exec time 6: 28.900784ms
		Exec time 7: 27.208939ms
		Exec time 8: 26.823204ms
		Exec time 9: 26.694262ms
		Exec time 10: 26.613483ms
		Exec time avg: 27223187ns
	Radix Sort:
		Exec time 1: 340.276314ms
		Exec time 2: 271.086174ms
		Exec time 3: 337.161954ms
		Exec time 4: 279.249274ms
		Exec time 5: 344.342891ms
		Exec time 6: 280.695416ms
		Exec time 7: 308.488122ms
		Exec time 8: 288.990357ms
		Exec time 9: 284.260346ms
		Exec time 10: 348.209775ms
		Exec time avg: 308276062ns
Job: Input: ./input/SortedInDescendingOrderCase_100000.txt Output: ./output/SortedInDescendingOrderCase_100000_p24.txt Procs: 24 Runs: 10
Input file: ./input/SortedInDescendingOrderCase_100000.txt
Output file: ./output/SortedInDescendingOrderCase_100000_p24.txt
Logical CPUs: 48
Max procs: 24
Runs: 10
Problem size: n = 100000
	Bitonic Sort:
		Exec time 1: 166.300619ms
		Exec time 2: 165.719946ms
		Exec time 3: 161.398661ms
		Exec time 4: 158.109374ms
		Exec time 5: 145.389799ms
		Exec time 6: 148.290434ms
		Exec time 7: 136.630033ms
		Exec time 8: 109.275563ms
		Exec time 9: 107.334682ms
		Exec time 10: 169.63186ms
		Exec time avg: 146808097ns
	Mergesort:
		Exec time 1: 2.635351ms
		Exec time 2: 12.329885ms
		Exec time 3: 2.861204ms
		Exec time 4: 13.256068ms
		Exec time 5: 2.683597ms
		Exec time 6: 13.84872ms
		Exec time 7: 4.865878ms
		Exec time 8: 2.861774ms
		Exec time 9: 12.099553ms
		Exec time 10: 23.35328ms
		Exec time avg: 9079531ns
	Quicksort:
		Exec time 1: 43.630351ms
		Exec time 2: 52.641679ms
		Exec time 3: 52.63954ms
		Exec time 4: 52.406397ms
		Exec time 5: 52.78676ms
		Exec time 6: 52.479782ms
		Exec time 7: 46.771039ms
		Exec time 8: 62.822601ms
		Exec time 9: 53.079653ms
		Exec time 10: 52.8102ms
		Exec time avg: 52206800ns
	Radix Sort:
		Exec time 1: 132.002249ms
		Exec time 2: 136.412628ms
		Exec time 3: 179.686748ms
		Exec time 4: 129.122445ms
		Exec time 5: 123.488573ms
		Exec time 6: 115.749579ms
		Exec time 7: 108.96073ms
		Exec time 8: 102.874672ms
		Exec time 9: 109.344195ms
		Exec time 10: 105.307572ms
		Exec time avg: 124294939ns
Job: Input: ./input/SortedInDescendingOrderCase_100000.txt Output: ./output/SortedInDescendingOrderCase_100000_p48.txt Procs: 48 Runs: 10
Input file: ./input/SortedInDescendingOrderCase_100000.txt
Output file: ./output/SortedInDescendingOrderCase_100000_p48.txt
Logical CPUs: 48
Max procs: 48
Runs: 10
Problem size: n = 100000
	Bitonic Sort:
		Exec time 1: 145.855515ms
		Exec time 2: 143.799238ms
		Exec time 3: 143.37391ms
		Exec time 4: 169.192734ms
		Exec time 5: 143.862624ms
		Exec time 6: 149.923503ms
		Exec time 7: 144.64312ms
		Exec time 8: 165.026196ms
		Exec time 9: 146.406385ms
		Exec time 10: 153.73543ms
		Exec time avg: 150581865ns
	Mergesort:
		Exec time 1: 3.169552ms
		Exec time 2: 17.199529ms
		Exec time 3: 3.190411ms
		Exec time 4: 20.596113ms
		Exec time 5: 11.299256ms
		Exec time 6: 11.156429ms
		Exec time 7: 4.044963ms
		Exec time 8: 19.58006ms
		Exec time 9: 13.283984ms
		Exec time 10: 5.683663ms
		Exec time avg: 10920396ns
	Quicksort:
		Exec time 1: 60.154988ms
		Exec time 2: 56.942795ms
		Exec time 3: 58.051928ms
		Exec time 4: 58.368468ms
		Exec time 5: 40.816346ms
		Exec time 6: 47.700159ms
		Exec time 7: 47.550776ms
		Exec time 8: 43.197445ms
		Exec time 9: 37.012465ms
		Exec time 10: 52.679808ms
		Exec time avg: 50247517ns
	Radix Sort:
		Exec time 1: 223.178485ms
		Exec time 2: 216.035744ms
		Exec time 3: 230.810652ms
		Exec time 4: 234.335807ms
		Exec time 5: 221.181382ms
		Exec time 6: 231.501442ms
		Exec time 7: 216.160246ms
		Exec time 8: 238.488006ms
		Exec time 9: 239.516866ms
		Exec time 10: 222.216387ms
		Exec time avg: 227342501ns
Job: Input: ./input/SortedInDescendingOrderCase_10000.txt Output: ./output/SortedInDescendingOrderCase_10000_p1.txt Procs: 1 Runs: 10
Input file: ./input/SortedInDescendingOrderCase_10000.txt
Output file: ./output/SortedInDescendingOrderCase_10000_p1.txt
Logical CPUs: 48
Max procs: 1
Runs: 10
Problem size: n = 10000
	Bitonic Sort:
		Exec time 1: 86.701505ms
		Exec time 2: 92.305861ms
		Exec time 3: 86.879926ms
		Exec time 4: 80.375191ms
		Exec time 5: 86.388409ms
		Exec time 6: 86.509995ms
		Exec time 7: 82.273728ms
		Exec time 8: 88.372242ms
		Exec time 9: 87.353024ms
		Exec time 10: 80.851185ms
		Exec time avg: 85801106ns
	Mergesort:
		Exec time 1: 772.852µs
		Exec time 2: 991.56µs
		Exec time 3: 933.882µs
		Exec time 4: 657.142µs
		Exec time 5: 696.241µs
		Exec time 6: 2.564091ms
		Exec time 7: 640.281µs
		Exec time 8: 1.091409ms
		Exec time 9: 1.479326ms
		Exec time 10: 1.001195ms
		Exec time avg: 1082797ns
	Quicksort:
		Exec time 1: 3.037097ms
		Exec time 2: 3.131571ms
		Exec time 3: 2.746251ms
		Exec time 4: 3.053491ms
		Exec time 5: 2.674827ms
		Exec time 6: 2.748736ms
		Exec time 7: 3.292979ms
		Exec time 8: 2.744324ms
		Exec time 9: 3.216673ms
		Exec time 10: 2.850751ms
		Exec time avg: 2949670ns
	Radix Sort:
		Exec time 1: 19.214873ms
		Exec time 2: 17.678093ms
		Exec time 3: 21.099715ms
		Exec time 4: 17.886684ms
		Exec time 5: 17.483219ms
		Exec time 6: 22.33042ms
		Exec time 7: 24.271178ms
		Exec time 8: 22.189321ms
		Exec time 9: 20.794961ms
		Exec time 10: 26.328126ms
		Exec time avg: 20927659ns
Job: Input: ./input/SortedInDescendingOrderCase_10000.txt Output: ./output/SortedInDescendingOrderCase_10000_p24.txt Procs: 24 Runs: 10
Input file: ./input/SortedInDescendingOrderCase_10000.txt
Output file: ./output/SortedInDescendingOrderCase_10000_p24.txt
Logical CPUs: 48
Max procs: 24
Runs: 10
Problem size: n = 10000
	Bitonic Sort:
		Exec time 1: 17.345087ms
		Exec time 2: 17.574196ms
		Exec time 3: 15.771459ms
		Exec time 4: 15.934126ms
		Exec time 5: 12.878678ms
		Exec time 6: 15.820131ms
		Exec time 7: 13.014923ms
		Exec time 8: 16.268179ms
		Exec time 9: 12.941055ms
		Exec time 10: 10.670118ms
		Exec time avg: 14821795ns
	Mergesort:
		Exec time 1: 2.900634ms
		Exec time 2: 510.593µs
		Exec time 3: 873.834µs
		Exec time 4: 788.551µs
		Exec time 5: 766.863µs
		Exec time 6: 2.099742ms
		Exec time 7: 494.911µs
		Exec time 8: 739.11µs
		Exec time 9: 568.785µs
		Exec time 10: 1.083014ms
		Exec time avg: 1082603ns
	Quicksort:
		Exec time 1: 3.266765ms
		Exec time 2: 3.491914ms
		Exec time 3: 5.897793ms
		Exec time 4: 3.495097ms
		Exec time 5: 3.724413ms
		Exec time 6: 3.533018ms
		Exec time 7: 6.094235ms
		Exec time 8: 3.638706ms
		Exec time 9: 3.576143ms
		Exec time 10: 3.418735ms
		Exec time avg: 4013681ns
	Radix Sort:
		Exec time 1: 8.228164ms
		Exec time 2: 10.389078ms
		Exec time 3: 12.434964ms
		Exec time 4: 8.53853ms
		Exec time 5: 10.243147ms
		Exec time 6: 9.741172ms
		Exec time 7: 13.691264ms
		Exec time 8: 11.744848ms
		Exec time 9: 8.456666ms
		Exec time 10: 8.738383ms
		Exec time avg: 10220621ns
Job: Input: ./input/SortedInDescendingOrderCase_10000.txt Output: ./output/SortedInDescendingOrderCase_10000_p48.txt Procs: 48 Runs: 10
Input file: ./input/SortedInDescendingOrderCase_10000.txt
Output file: ./output/SortedInDescendingOrderCase_10000_p48.txt
Logical CPUs: 48
Max procs: 48
Runs: 10
Problem size: n = 10000
	Bitonic Sort:
		Exec time 1: 24.849705ms
		Exec time 2: 20.685042ms
		Exec time 3: 16.2346ms
		Exec time 4: 20.393367ms
		Exec time 5: 15.538849ms
		Exec time 6: 21.658086ms
		Exec time 7: 16.739839ms
		Exec time 8: 17.155113ms
		Exec time 9: 21.803112ms
		Exec time 10: 15.87033ms
		Exec time avg: 19092804ns
	Mergesort:
		Exec time 1: 802.954µs
		Exec time 2: 882.911µs
		Exec time 3: 650.851µs
		Exec time 4: 920.23µs
		Exec time 5: 4.790094ms
		Exec time 6: 915.403µs
		Exec time 7: 842.945µs
		Exec time 8: 662.047µs
		Exec time 9: 738.286µs
		Exec time 10: 4.184201ms
		Exec time avg: 1538992ns
	Quicksort:
		Exec time 1: 4.894942ms
		Exec time 2: 3.731946ms
		Exec time 3: 3.746184ms
		Exec time 4: 4.308633ms
		Exec time 5: 7.755593ms
		Exec time 6: 3.588577ms
		Exec time 7: 3.6862ms
		Exec time 8: 3.595348ms
		Exec time 9: 3.494447ms
		Exec time 10: 3.472349ms
		Exec time avg: 4227421ns
	Radix Sort:
		Exec time 1: 12.592602ms
		Exec time 2: 15.320622ms
		Exec time 3: 15.262771ms
		Exec time 4: 13.368325ms
		Exec time 5: 18.343882ms
		Exec time 6: 16.523049ms
		Exec time 7: 19.074993ms
		Exec time 8: 16.916282ms
		Exec time 9: 23.491471ms
		Exec time 10: 18.928679ms
		Exec time avg: 16982267ns
Job: Input: ./input/SortedInDescendingOrderCase_1000.txt Output: ./output/SortedInDescendingOrderCase_1000_p1.txt Procs: 1 Runs: 10
Input file: ./input/SortedInDescendingOrderCase_1000.txt
Output file: ./output/SortedInDescendingOrderCase_1000_p1.txt
Logical CPUs: 48
Max procs: 1
Runs: 10
Problem size: n = 1000
	Bitonic Sort:
		Exec time 1: 3.673265ms
		Exec time 2: 3.629173ms
		Exec time 3: 3.614767ms
		Exec time 4: 3.423856ms
		Exec time 5: 3.373391ms
		Exec time 6: 3.460281ms
		Exec time 7: 3.716214ms
		Exec time 8: 3.567698ms
		Exec time 9: 3.315621ms
		Exec time 10: 3.78417ms
		Exec time avg: 3555843ns
	Mergesort:
		Exec time 1: 152.258µs
		Exec time 2: 168.648µs
		Exec time 3: 170.371µs
		Exec time 4: 188.668µs
		Exec time 5: 168.021µs
		Exec time 6: 180.013µs
		Exec time 7: 132.405µs
		Exec time 8: 66.384µs
		Exec time 9: 207.651µs
		Exec time 10: 69.996µs
		Exec time avg: 150441ns
	Quicksort:
		Exec time 1: 794.776µs
		Exec time 2: 957.661µs
		Exec time 3: 886.178µs
		Exec time 4: 324.695µs
		Exec time 5: 311.579µs
		Exec time 6: 526.476µs
		Exec time 7: 432.215µs
		Exec time 8: 644.737µs
		Exec time 9: 420.418µs
		Exec time 10: 280.213µs
		Exec time avg: 557894ns
	Radix Sort:
		Exec time 1: 1.15415ms
		Exec time 2: 1.554862ms
		Exec time 3: 1.371125ms
		Exec time 4: 1.662647ms
		Exec time 5: 1.745615ms
		Exec time 6: 2.498064ms
		Exec time 7: 1.442997ms
		Exec time 8: 1.699821ms
		Exec time 9: 1.615493ms
		Exec time 10: 2.666851ms
		Exec time avg: 1741162ns
Job: Input: ./input/SortedInDescendingOrderCase_1000.txt Output: ./output/SortedInDescendingOrderCase_1000_p24.txt Procs: 24 Runs: 10
Input file: ./input/SortedInDescendingOrderCase_1000.txt
Output file: ./output/SortedInDescendingOrderCase_1000_p24.txt
Logical CPUs: 48
Max procs: 24
Runs: 10
Problem size: n = 1000
	Bitonic Sort:
		Exec time 1: 2.203068ms
		Exec time 2: 2.6491ms
		Exec time 3: 1.876822ms
		Exec time 4: 1.188822ms
		Exec time 5: 1.153257ms
		Exec time 6: 1.613167ms
		Exec time 7: 1.921125ms
		Exec time 8: 1.586683ms
		Exec time 9: 1.902938ms
		Exec time 10: 1.772063ms
		Exec time avg: 1786704ns
	Mergesort:
		Exec time 1: 185.777µs
		Exec time 2: 186.076µs
		Exec time 3: 247.759µs
		Exec time 4: 76.37µs
		Exec time 5: 87.905µs
		Exec time 6: 100.094µs
		Exec time 7: 1.290906ms
		Exec time 8: 257.612µs
		Exec time 9: 72.655µs
		Exec time 10: 134.339µs
		Exec time avg: 263949ns
	Quicksort:
		Exec time 1: 703.351µs
		Exec time 2: 592.064µs
		Exec time 3: 324.701µs
		Exec time 4: 791.362µs
		Exec time 5: 719.766µs
		Exec time 6: 435.624µs
		Exec time 7: 619.203µs
		Exec time 8: 328.501µs
		Exec time 9: 473.666µs
		Exec time 10: 722.356µs
		Exec time avg: 571059ns
	Radix Sort:
		Exec time 1: 921.899µs
		Exec time 2: 1.133213ms
		Exec time 3: 857.039µs
		Exec time 4: 1.292666ms
		Exec time 5: 1.136704ms
		Exec time 6: 971.976µs
		Exec time 7: 1.257879ms
		Exec time 8: 1.096201ms
		Exec time 9: 1.852193ms
		Exec time 10: 1.616356ms
		Exec time avg: 1213612ns
Job: Input: ./input/SortedInDescendingOrderCase_1000.txt Output: ./output/SortedInDescendingOrderCase_1000_p48.txt Procs: 48 Runs: 10
Input file: ./input/SortedInDescendingOrderCase_1000.txt
Output file: ./output/SortedInDescendingOrderCase_1000_p48.txt
Logical CPUs: 48
Max procs: 48
Runs: 10
Problem size: n = 1000
	Bitonic Sort:
		Exec time 1: 3.673019ms
		Exec time 2: 2.679686ms
		Exec time 3: 2.497912ms
		Exec time 4: 1.91437ms
		Exec time 5: 1.499909ms
		Exec time 6: 1.737365ms
		Exec time 7: 1.372168ms
		Exec time 8: 1.2887ms
		Exec time 9: 1.156064ms
		Exec time 10: 1.164052ms
		Exec time avg: 1898324ns
	Mergesort:
		Exec time 1: 292.939µs
		Exec time 2: 177.482µs
		Exec time 3: 187.56µs
		Exec time 4: 892.004µs
		Exec time 5: 62.45µs
		Exec time 6: 201.134µs
		Exec time 7: 81.244µs
		Exec time 8: 91.189µs
		Exec time 9: 84.764µs
		Exec time 10: 68.592µs
		Exec time avg: 213935ns
	Quicksort:
		Exec time 1: 1.015844ms
		Exec time 2: 1.003563ms
		Exec time 3: 663.177µs
		Exec time 4: 562.306µs
		Exec time 5: 459.775µs
		Exec time 6: 747.794µs
		Exec time 7: 690.515µs
		Exec time 8: 444.835µs
		Exec time 9: 825.587µs
		Exec time 10: 608.511µs
		Exec time avg: 702190ns
	Radix Sort:
		Exec time 1: 1.583484ms
		Exec time 2: 979.742µs
		Exec time 3: 743.732µs
		Exec time 4: 800.124µs
		Exec time 5: 832.618µs
		Exec time 6: 2.180591ms
		Exec time 7: 874.106µs
		Exec time 8: 757.357µs
		Exec time 9: 1.170008ms
		Exec time 10: 1.545053ms
		Exec time avg: 1146681ns
Job: Input: ./input/SortedInDescendingOrderCase_100.txt Output: ./output/SortedInDescendingOrderCase_100_p1.txt Procs: 1 Runs: 10
Input file: ./input/SortedInDescendingOrderCase_100.txt
Output file: ./output/SortedInDescendingOrderCase_100_p1.txt
Logical CPUs: 48
Max procs: 1
Runs: 10
Problem size: n = 100
	Bitonic Sort:
		Exec time 1: 712.865µs
		Exec time 2: 756.793µs
		Exec time 3: 424.022µs
		Exec time 4: 605.551µs
		Exec time 5: 326.527µs
		Exec time 6: 888.738µs
		Exec time 7: 524.603µs
		Exec time 8: 320.37µs
		Exec time 9: 680.883µs
		Exec time 10: 662.793µs
		Exec time avg: 590314ns
	Mergesort:
		Exec time 1: 50.879µs
		Exec time 2: 28.008µs
		Exec time 3: 18.415µs
		Exec time 4: 18.447µs
		Exec time 5: 44.116µs
		Exec time 6: 17.843µs
		Exec time 7: 22.705µs
		Exec time 8: 19.549µs
		Exec time 9: 44.249µs
		Exec time 10: 17.91µs
		Exec time avg: 28212ns
	Quicksort:
		Exec time 1: 98.471µs
		Exec time 2: 105.126µs
		Exec time 3: 99.677µs
		Exec time 4: 104.969µs
		Exec time 5: 105.102µs
		Exec time 6: 99.466µs
		Exec time 7: 101.254µs
		Exec time 8: 98.106µs
		Exec time 9: 100.854µs
		Exec time 10: 45.693µs
		Exec time avg: 95871ns
	Radix Sort:
		Exec time 1: 221.24µs
		Exec time 2: 174.192µs
		Exec time 3: 172.196µs
		Exec time 4: 369.352µs
		Exec time 5: 283.412µs
		Exec time 6: 422.445µs
		Exec time 7: 378.861µs
		Exec time 8: 389.421µs
		Exec time 9: 111.319µs
		Exec time 10: 173.51µs
		Exec time avg: 269594ns
Job: Input: ./input/SortedInDescendingOrderCase_100.txt Output: ./output/SortedInDescendingOrderCase_100_p24.txt Procs: 24 Runs: 10
Input file: ./input/SortedInDescendingOrderCase_100.txt
Output file: ./output/SortedInDescendingOrderCase_100_p24.txt
Logical CPUs: 48
Max procs: 24
Runs: 10
Problem size: n = 100
	Bitonic Sort:
		Exec time 1: 565.216µs
		Exec time 2: 1.643758ms
		Exec time 3: 735.169µs
		Exec time 4: 559.316µs
		Exec time 5: 602.792µs
		Exec time 6: 521.341µs
		Exec time 7: 482.841µs
		Exec time 8: 506.865µs
		Exec time 9: 536.02µs
		Exec time 10: 359.355µs
		Exec time avg: 651267ns
	Mergesort:
		Exec time 1: 39.587µs
		Exec time 2: 21.174µs
		Exec time 3: 70.792µs
		Exec time 4: 14.835µs
		Exec time 5: 21.565µs
		Exec time 6: 21.963µs
		Exec time 7: 17.782µs
		Exec time 8: 6.706µs
		Exec time 9: 14.905µs
		Exec time 10: 40.646µs
		Exec time avg: 26995ns
	Quicksort:
		Exec time 1: 106.865µs
		Exec time 2: 104.964µs
		Exec time 3: 248.732µs
		Exec time 4: 109.851µs
		Exec time 5: 113.59µs
		Exec time 6: 99.804µs
		Exec time 7: 117.526µs
		Exec time 8: 110.57µs
		Exec time 9: 120.731µs
		Exec time 10: 109.364µs
		Exec time avg: 124199ns
	Radix Sort:
		Exec time 1: 245.694µs
		Exec time 2: 219.376µs
		Exec time 3: 124.293µs
		Exec time 4: 163.66µs
		Exec time 5: 216.446µs
		Exec time 6: 418.745µs
		Exec time 7: 257.274µs
		Exec time 8: 214.866µs
		Exec time 9: 244.461µs
		Exec time 10: 236.417µs
		Exec time avg: 234123ns
Job: Input: ./input/SortedInDescendingOrderCase_100.txt Output: ./output/SortedInDescendingOrderCase_100_p48.txt Procs: 48 Runs: 10
Input file: ./input/SortedInDescendingOrderCase_100.txt
Output file: ./output/SortedInDescendingOrderCase_100_p48.txt
Logical CPUs: 48
Max procs: 48
Runs: 10
Problem size: n = 100
	Bitonic Sort:
		Exec time 1: 511.497µs
		Exec time 2: 574.514µs
		Exec time 3: 779.203µs
		Exec time 4: 1.297253ms
		Exec time 5: 274.8µs
		Exec time 6: 500.356µs
		Exec time 7: 327.556µs
		Exec time 8: 451.819µs
		Exec time 9: 329.595µs
		Exec time 10: 537.941µs
		Exec time avg: 558453ns
	Mergesort:
		Exec time 1: 35.489µs
		Exec time 2: 22.828µs
		Exec time 3: 5.704µs
		Exec time 4: 21.01µs
		Exec time 5: 18.214µs
		Exec time 6: 35.816µs
		Exec time 7: 6.252µs
		Exec time 8: 18.111µs
		Exec time 9: 35.506µs
		Exec time 10: 35.795µs
		Exec time avg: 23472ns
	Quicksort:
		Exec time 1: 101.092µs
		Exec time 2: 55.27µs
		Exec time 3: 51.527µs
		Exec time 4: 130.14µs
		Exec time 5: 94.427µs
		Exec time 6: 46.857µs
		Exec time 7: 89.414µs
		Exec time 8: 110.57µs
		Exec time 9: 112.576µs
		Exec time 10: 113.204µs
		Exec time avg: 90507ns
	Radix Sort:
		Exec time 1: 138.56µs
		Exec time 2: 227.073µs
		Exec time 3: 248.839µs
		Exec time 4: 234.6µs
		Exec time 5: 240.746µs
		Exec time 6: 267.447µs
		Exec time 7: 231.4µs
		Exec time 8: 229.805µs
		Exec time 9: 217.856µs
		Exec time 10: 154.917µs
		Exec time avg: 219124ns
Done
